BEGIN Options
  LIST       lpr_ss.lst
  NEWTON UNDER_RELAXATION
END Options

BEGIN Packages
  DIS6       lpr_ss.dis
  IC6        lpr_ss.ic
  NPF6       lpr_ss.npf
  OC6        lpr_ss.oc
  WEL6       lpr_ss.wel
  DRN6       lpr_ss.drn
  SFR6       lpr_ss.sfr
  RCH6       lpr_ss.rch
  CHD6       lpr_ss.chd
#  CHD6       lpr_ss.ib.ibound.chd  'CHD-FROM-IBOUND' 
END Packages

