# WEL6 input file, prepared by MF5to6 on 12/20/2025 at 16:46:52.

BEGIN Options
  AUXILIARY IFACE
  PRINT_INPUT
  PRINT_FLOWS
  SAVE_FLOWS
    AUTO_FLOW_REDUCE_CSV FILEOUT flow_reduce.csv

END Options

BEGIN Dimensions
  MAXBOUND  587
END Dimensions

BEGIN PERIOD 1
  1  639  976   -1483.0658        0.0000000
  2  639  976   -7071.7231        0.0000000
  1  752  94   -8784.4990        0.0000000
  2  752  94   -8431.1592        0.0000000
  3  752  94   -338.60077        0.0000000
  2  678  127  -0.38600000E-03    0.0000000
  3  678  127  -0.14040000E-04    0.0000000
  2  556  748   -6325.3843        0.0000000
  1  577  855   -32.217491        0.0000000
  2  577  855   -51.837074        0.0000000
  3  577  855  -0.73123280        0.0000000
  2  563  867   -4.7440000        0.0000000
  1  774  405   -5993.8232        0.0000000
  2  774  405   -6617.2783        0.0000000
  2  623  925   -13.920200        0.0000000
  1  698  206   -7097.8276        0.0000000
  2  698  206   -7515.1641        0.0000000
  1  757  172   -3580.8987        0.0000000
  2  757  172   -3740.9546        0.0000000
  2  519  511   -8686.6416        0.0000000
  2  783  345   -8785.2559        0.0000000
  2  498  392   -1010.8467        0.0000000
  3  498  392   -43.383980        0.0000000
  2  725  137   -17.570499        0.0000000
  1  548  417   -6724.1602        0.0000000
  2  548  417   -6875.4155        0.0000000
  2  164  529   -3631.6006        0.0000000
  3  164  529   -206.34094        0.0000000
  2  480  789   -5736.3262        0.0000000
  3  480  789   -120.51105        0.0000000
  2  851  87   -4831.8906        0.0000000
  2  478  768   -4282.8120        0.0000000
  2  865  644   -20445.486        0.0000000
  1  882  192   -6160.4800        0.0000000
  2  882  192   -4309.9644        0.0000000
  2  397  327  -0.99666580        0.0000000
  3  397  327  -0.28234200E-01    0.0000000
  2  455  651   -20.181087        0.0000000
  3  455  651  -0.31781240        0.0000000
  2  505  815   -7289.4351        0.0000000
  3  505  815   -139.37733        0.0000000
  2  458  387   -886.95117        0.0000000
  3  458  387   -26.715397        0.0000000
  2  856  245   -4500.0337        0.0000000
  3  856  245   -129.79617        0.0000000
  1  438  394   -447.76962        0.0000000
  2  438  394   -474.68219        0.0000000
  2  773  658   -32234.566        0.0000000
  1  474  835   -17.977964        0.0000000
  2  474  835   -34.080658        0.0000000
  3  474  835  -0.65287960        0.0000000
  2  294  680   -2154.9492        0.0000000
  3  294  680   -31.803289        0.0000000
  2  840  107   -17612.809        0.0000000
  3  840  107   -590.24139        0.0000000
  1  619  435   -7665.0908        0.0000000
  2  619  435   -8480.7451        0.0000000
  2  665  159   -4686.9341        0.0000000
  2  534  503   -3610.7400        0.0000000
  2  355  512   -6589.7266        0.0000000
  3  355  512   -231.21848        0.0000000
  2  821  386   -7868.9805        0.0000000
  3  821  386   -294.71835        0.0000000
  2  450  636   -9.7370005        0.0000000
  2  762  421   -17.570499        0.0000000
  2  356  419   -709.47748        0.0000000
  3  356  419   -86.521645        0.0000000
  2  864  533   -10483.918        0.0000000
  3  864  533   -181.38266        0.0000000
  1  472  768   -312.96460        0.0000000
  2  472  768   -554.78839        0.0000000
  3  472  768   -10.772591        0.0000000
  1  801  379   -5621.4604        0.0000000
  2  801  379   -6167.4941        0.0000000
  3  801  379   -229.27487        0.0000000
  2  410  341   -45714.883        0.0000000
  3  410  341   -1528.9259        0.0000000
  2  623  396   -494.17059        0.0000000
  2  725  996   -15035.087        0.0000000
  2  617  538   -1959.1121        0.0000000
  2  896  527   -26722.916        0.0000000
  3  896  527   -480.62799        0.0000000
  1  714  486   -2984.0945        0.0000000
  2  714  486   -3884.3274        0.0000000
  3  714  486   -89.500633        0.0000000
  1  486  311   -3325.9995        0.0000000
  2  486  311   -7811.7520        0.0000000
  3  486  311   -211.70061        0.0000000
  1  623  396   -2904.4055        0.0000000
  2  564  854   -48.902401        0.0000000
  1  532  856   -3132.8369        0.0000000
  2  532  856   -6201.4971        0.0000000
  1  741  458   -2222.0193        0.0000000
  2  741  458   -2970.9512        0.0000000
  3  741  458   -78.182922        0.0000000
  2  514  822   -12277.395        0.0000000
  2  868  599   -10981.569        0.0000000
  2  232  543   -7702.4595        0.0000000
  3  232  543   -290.65884        0.0000000
  1  430  443   -1329.3774        0.0000000
  2  430  443   -959.17444        0.0000000
  3  430  443   -45.031666        0.0000000
  1  880  377   -6425.6929        0.0000000
  2  880  377   -8233.7725        0.0000000
  3  880  377   -274.45908        0.0000000
  2  683  94   -10.520300        0.0000000
  2  654  127   -6823.7656        0.0000000
  3  654  127   -250.87625        0.0000000
  2  701  538   -11860.095        0.0000000
  2  713  468   -6588.9419        0.0000000
  2  383  323   -19882.863        0.0000000
  1  852  444   -1207.5300        0.0000000
  2  852  444   -1434.6356        0.0000000
  2  662  194   -10204.543        0.0000000
  3  662  194   -371.07431        0.0000000
  2  714  468   -1206.8745        0.0000000
  1  415  414   -712.75287        0.0000000
  2  415  414   -305.15042        0.0000000
  3  415  414   -36.327431        0.0000000
  1  741  398   -6.5675979        0.0000000
  2  741  398   -6.6103020        0.0000000
  1  621  255   -3.6122000        0.0000000
  1  629  249   -3.4400721        0.0000000
  2  629  249   -2.9739280        0.0000000
  2  831  128   -3772.3174        0.0000000
  1  471  405   -9571.1436        0.0000000
  2  471  405   -8707.0264        0.0000000
  3  471  405   -454.19150        0.0000000
  2  638  512   -26377.730        0.0000000
  2  644  459   -10377.135        0.0000000
  2  786  559   -26942.479        0.0000000
  3  786  559   -454.34195        0.0000000
  1  355  484   -1215.2891        0.0000000
  2  355  484   -1062.6882        0.0000000
  3  355  484   -40.872623        0.0000000
  1  858  121   -6430.0713        0.0000000
  2  858  121   -6744.0786        0.0000000
  2  117  676   -8.7853003        0.0000000
  2  686  13   -18868.660        0.0000000
  3  686  13   -1548.2736        0.0000000
  2  769  238   -3730.1914        0.0000000
  3  769  238   -120.67911        0.0000000
  2  815  585   -6421.6191        0.0000000
  1  512  782   -395.33649        0.0000000
  2  803  272   -10777.121        0.0000000
  3  803  272   -371.36862        0.0000000
  1  317  523   -2012.9969        0.0000000
  2  317  523   -2064.5859        0.0000000
  3  317  523   -70.705002        0.0000000
  1  719  61   -1386.8330        0.0000000
  2  719  61   -1238.5308        0.0000000
  2  489  536   -8412.7607        0.0000000
  2  820  412   -15008.146        0.0000000
  2  463  636   -1675.2761        0.0000000
  3  463  636   -27.599277        0.0000000
  2  756  592   -1537.4197        0.0000000
  2  752  121   -8693.0986        0.0000000
  3  752  121   -328.04144        0.0000000
  1  829  272   -5168.8218        0.0000000
  2  829  272   -4751.1611        0.0000000
  3  829  272   -158.90161        0.0000000
  2  882  219   -10918.854        0.0000000
  2  806  656   -20759.193        0.0000000
  1  467  842   -8785.2559        0.0000000
  1  472  768   -3.1296616        0.0000000
  2  472  768   -5.5479121        0.0000000
  3  472  768  -0.10772640        0.0000000
  2  447  513   -6447.8936        0.0000000
  1  495  730   -2.1073747        0.0000000
  2  495  730   -36.364895        0.0000000
  3  495  730  -0.68613010        0.0000000
  2  603  428   -38335.844        0.0000000
  3  603  428   -832.12158        0.0000000
  3  478  330   -4833.4282        0.0000000
  2  683  98   -2.6356001        0.0000000
  2  498  312   -1800.2743        0.0000000
  3  498  312   -48.656059        0.0000000
  2  741  398   -63.648266        0.0000000
  3  741  398   -2.2411361        0.0000000
  1  850  158   -3832.9819        0.0000000
  2  850  158   -4513.0112        0.0000000
  2  818  107   -149.03798        0.0000000
  3  818  107   -5.5715156        0.0000000
  2  357  536   -11026.066        0.0000000
  3  357  536   -282.71964        0.0000000
  2  304  537   -5245.0552        0.0000000
  3  304  537   -175.41991        0.0000000
  3  196  512   -229.88091        0.0000000
  2  228  576   -6423.3906        0.0000000
  3  228  576   -133.26537        0.0000000
  2  804  258   -15046.603        0.0000000
  3  804  258   -506.96100        0.0000000
  1  859  651   -5092.4937        0.0000000
  2  859  651   -15269.533        0.0000000
  2  692  127   -14141.248        0.0000000
  3  692  127   -487.62924        0.0000000
  2  777  299   -8014.6548        0.0000000
  3  777  299   -260.21606        0.0000000
  2  315  557   -557.69952        0.0000000
  3  315  557   -13.342093        0.0000000
  2  218  530   -12068.711        0.0000000
  3  218  530   -580.22650        0.0000000
  2  672  186   -9901.9912        0.0000000
  3  672  186   -351.13443        0.0000000
  1  638  977   -799.67670        0.0000000
  2  638  977   -3813.0950        0.0000000
  1  732  34   -1606.3563        0.0000000
  2  732  34   -1249.2911        0.0000000
  1  778  67   -8616.2344        0.0000000
  2  778  67   -7317.6694        0.0000000
  3  778  67   -301.13867        0.0000000
  2  767  452   -8335.9893        0.0000000
  3  767  452   -223.48497        0.0000000
  2  423  407   -1425.6074        0.0000000
  3  423  407   -142.56073        0.0000000
  2  529  524   -2108.4614        0.0000000
  1  631  354   -62.868431        0.0000000
  2  631  354   -65.615967        0.0000000
  1  713  54   -2310.3298        0.0000000
  2  713  54   -2211.8806        0.0000000
  2  758  8   -927.72302        0.0000000
  2  702  144   -8592.6387        0.0000000
  1  711  272   -35.353931        0.0000000
  2  711  272   -426.84607        0.0000000
  2  404  321   -83.303009        0.0000000
  3  404  321   -2.3531923        0.0000000
  2  537  656   -125.35460        0.0000000
  2  299  546   -248.29330        0.0000000
  3  299  546   -7.6870990        0.0000000
  1  817  863   -5560.1572        0.0000000
  2  817  863   -12839.097        0.0000000
  2  477  468   -8.7853003        0.0000000
  1  624  967   -199.94472        0.0000000
  2  624  967   -311.79639        0.0000000
  2  673  611   -20506.531        0.0000000
  2  115  690   -26.832771        0.0000000
  3  115  690  -0.62112900        0.0000000
  2  679  137   -8512.9131        0.0000000
  3  520  416   -1449.5673        0.0000000
  2  556  534   -9000.3037        0.0000000
  3  556  534   -131.96927        0.0000000
  2  732  146   -12731.532        0.0000000
  3  732  146   -454.69757        0.0000000
  2  883  246   -21745.420        0.0000000
  3  883  246   -558.14709        0.0000000
  2  132  682   -4108.9248        0.0000000
  3  132  682   -93.172897        0.0000000
  2  725  192   -11816.338        0.0000000
  3  725  192   -408.71173        0.0000000
  2  180  575   -10287.352        0.0000000
  1  701  436   -1011.4918        0.0000000
  2  701  436   -1096.9696        0.0000000
  2  546  416   -3766.6785        0.0000000
  2  732  48   -2118.8008        0.0000000
  1  551  845   -30.119898        0.0000000
  2  551  845   -50.609417        0.0000000
  3  551  845  -0.77148480        0.0000000
  2  617  967   -888.77502        0.0000000
  2  417  449   -2165.8137        0.0000000
  3  417  449   -74.426582        0.0000000
  1  804  41   -6062.8218        0.0000000
  2  804  41   -4556.2949        0.0000000
  3  804  41   -204.31816        0.0000000
  2  724  219   -12367.758        0.0000000
  3  724  219   -407.10172        0.0000000
  2  518  475   -1165.5106        0.0000000
  2  588  938   -395.33649        0.0000000
  1  356  419   -525.57135        0.0000000
  2  356  419   -241.03345        0.0000000
  3  356  419   -29.394321        0.0000000
  1  555  846   -31.695507        0.0000000
  2  555  846   -52.298489        0.0000000
  3  555  846  -0.79360350        0.0000000
  2  336  449   -7547.7422        0.0000000
  3  336  449   -468.80383        0.0000000
  2  678  212   -3136.3362        0.0000000
  1  757  225   -6375.8271        0.0000000
  2  757  225   -6925.8643        0.0000000
  3  757  225   -224.86572        0.0000000
  1  849  472   -1588.6671        0.0000000
  2  250  410   -7063.8022        0.0000000
  3  250  410   -189.37808        0.0000000
  2  703  357   -2951.8459        0.0000000
  2  311  399   -5510.3828        0.0000000
  3  311  399   -127.55515        0.0000000
  1  784  831   -5911.9551        0.0000000
  2  784  831   -10118.778        0.0000000
  3  784  831   -131.20828        0.0000000
  2  372  473   -4844.5488        0.0000000
  3  372  473   -167.63145        0.0000000
  1  763  325   -3282.4478        0.0000000
  2  763  325   -3560.1851        0.0000000
  3  763  325   -115.21635        0.0000000
  2  535  452   -11005.017        0.0000000
  3  535  452   -229.74983        0.0000000
  1  811  127   -3691.5422        0.0000000
  2  811  127   -3730.3391        0.0000000
  3  811  127   -140.02759        0.0000000
  2  650  609   -3.3367164        0.0000000
  3  650  609  -0.45583600E-01    0.0000000
  1  486  445   -5738.0054        0.0000000
  2  486  445   -3472.6030        0.0000000
  1  474  835   -674.17407        0.0000000
  2  474  835   -1278.0254        0.0000000
  3  474  835   -24.483002        0.0000000
  2  512  801   -7538.6748        0.0000000
  3  512  801   -146.66682        0.0000000
  2  221  645   -7299.4492        0.0000000
  2  685  15   -5789.8481        0.0000000
  3  685  15   -362.90552        0.0000000
  1  699  41   -3356.3369        0.0000000
  2  699  41   -4079.9429        0.0000000
  2  270  415   -5238.1304        0.0000000
  3  270  415   -121.53436        0.0000000
  1  652  172   -3472.4312        0.0000000
  2  652  172   -2960.9382        0.0000000
  2  647  610   -51968.668        0.0000000
  1  828  505  -0.18219560        0.0000000
  2  828  505   -4.2018561        0.0000000
  3  828  505  -0.81748200E-01    0.0000000
  2  783  467   -2994.6333        0.0000000
  3  783  467   -75.813507        0.0000000
  2  613  428   -38314.375        0.0000000
  3  613  428   -834.19019        0.0000000
  1  705  94   -11.854795        0.0000000
  2  705  94   -13.540104        0.0000000
  2  855  299   -7805.0059        0.0000000
  3  855  299   -258.10205        0.0000000
  2  807  412   -5332.7144        0.0000000
  3  807  412   -201.99675        0.0000000
  2  589  403   -10054.781        0.0000000
  1  679  88   -49.733627        0.0000000
  2  679  88   -50.564674        0.0000000
  2  692  591   -13343.733        0.0000000
  3  692  591   -207.52307        0.0000000
  2  897  526   -1.5740000        0.0000000
  2  726  526   -20153.193        0.0000000
  2  837  668   -3164.7603        0.0000000
  2  112  701   -33524.711        0.0000000
  3  112  701   -813.70654        0.0000000
  2  871  14  -0.40000000E-03    0.0000000
  1  622  250   -1.6981000        0.0000000
  2  481  611   -3.3809540        0.0000000
  3  481  611  -0.59946000E-01    0.0000000
  2  437  636   -4.7000999        0.0000000
  2  531  650   -163.73340        0.0000000
  2  681  361   -110626.20        0.0000000
  3  681  361   -2769.1165        0.0000000
  2  683  571   -5567.6558        0.0000000
  1  784  34   -8159.7822        0.0000000
  2  784  34   -6648.8643        0.0000000
  2  249  776   -790.67297        0.0000000
  2  296  425   -8665.2246        0.0000000
  3  296  425   -229.84680        0.0000000
  1  858  35   -1828.7540        0.0000000
  2  858  35   -1511.1805        0.0000000
  2  796  198   -11126.160        0.0000000
  3  796  198   -394.82428        0.0000000
  2  620  369   -69700.195        0.0000000
  1  665  146   -4793.2554        0.0000000
  2  665  146   -4684.3975        0.0000000
  3  665  146   -205.45604        0.0000000
  2  813  102   -3522.3091        0.0000000
  3  813  102   -134.69629        0.0000000
  2  682  97   -9.9273005        0.0000000
  1  652  704   -53.253315        0.0000000
  2  652  704   -3491.2300        0.0000000
  3  652  704   -41.365284        0.0000000
  2  811  61   -10021.341        0.0000000
  2  432  483   -5093.8359        0.0000000
  2  458  483   -17274.010        0.0000000
  2  578  694   -2789.3186        0.0000000
  2  482  428   -30542.746        0.0000000
  2  512  469   -23838.791        0.0000000
  2  732  61   -2625.3638        0.0000000
  2  789  325   -7444.8989        0.0000000
  2  881  482   -13051.412        0.0000000
  2  723  325   -6052.6753        0.0000000
  2  504  396   -20785.914        0.0000000
  2  521  433   -25489.943        0.0000000
  2  826  559   -7379.6147        0.0000000
  2  798  114   -2677.3945        0.0000000
  2  303  445   -527.11530        0.0000000
  2  829  299   -5848.8057        0.0000000
  2  556  534   -24352.729        0.0000000
  2  842  598   -7634.3872        0.0000000
  2  720  452   -3821.5862        0.0000000
  2  593  928   -11947.947        0.0000000
  2  299  523   -5313.6416        0.0000000
  2  177  515   -7537.7495        0.0000000
  2  750  325   -14845.068        0.0000000
  2  736  572   -7267.0537        0.0000000
  2  635  537   -4269.6343        0.0000000
  2  551  907   -6.1131001        0.0000000
  2  207  554   -13595.396        0.0000000
  2  752  14   -8695.8223        0.0000000
  2  710  312   -8384.2080        0.0000000
  2  723  351   -6402.9873        0.0000000
  2  679  172   -8456.2480        0.0000000
  2  752  454   -6680.4546        0.0000000
  2  703  565   -22731.850        0.0000000
  2  289  537   -13490.571        0.0000000
  2  850  519   -24159.453        0.0000000
  2  652  225   -23914.564        0.0000000
  2  747  546   -10553.691        0.0000000
  2  405  511   -2661.6882        0.0000000
  2  509  389   -6681.1870        0.0000000
  2  254  565   -12887.970        0.0000000
  2  852  559   -9242.0889        0.0000000
  2  838  87   -4691.8208        0.0000000
  2  455  454   -22283.115        0.0000000
  2  713  519   -14485.038        0.0000000
  2  839  559   -4796.7495        0.0000000
  2  450  636   -355.07480        0.0000000
  2  526  795   -7116.0571        0.0000000
  2  659  611  -0.10980000        0.0000000
  2  646  311   -5971.8223        0.0000000
  2  750  325   -15088.593        0.0000000
  2  674  198   -2723.3120        0.0000000
  2  608  454   -38076.762        0.0000000
  2  516  422   -1449.5673        0.0000000
  2  638  225   -2530.1536        0.0000000
  2  406  483   -17849.443        0.0000000
  2  255  590   -21927.998        0.0000000
  2  485  376   -4259.7510        0.0000000
  2  751  192   -16645.801        0.0000000
  2  724  258   -15418.124        0.0000000
  2  189  552   -20.883301        0.0000000
  2  728  397   -26749.273        0.0000000
  2  856  259   -16579.975        0.0000000
  2  777  192   -11605.835        0.0000000
  2  516  422   -1735.0880        0.0000000
  2  602  717   -112.34150        0.0000000
  2  723  351   -1061.5518        0.0000000
  2  293  563   -10322.126        0.0000000
  2  798  532   -4836.2832        0.0000000
  2  750  672   -2086.4983        0.0000000
  2  562  852   -11.177000        0.0000000
  2  785  145   -16051.541        0.0000000
  2  728  410   -4498.0508        0.0000000
  2  156  547   -3821.5862        0.0000000
  2  692  61   -322.49210        0.0000000
  2  882  259   -21510.699        0.0000000
  2  809  292   -5207.8994        0.0000000
  2  890  146   -8330.6191        0.0000000
  2  191  529   -7199.5171        0.0000000
  2  517  357   -2965.0237        0.0000000
  2  679  127   -3853.8457        0.0000000
  2  727  437   -5224.2988        0.0000000
  2  492  553   -12413.566        0.0000000
  2  425  420   -1581.3459        0.0000000
  2  662  922   -4835.1851        0.0000000
  2  610  357   -6209.7480        0.0000000
  2  689  370   -40713.070        0.0000000
  2  251  538   -3399.8938        0.0000000
  2  698  166   -5801.9258        0.0000000
  2  813  559   -12350.532        0.0000000
  2  818  128   -3976.6460        0.0000000
  2  725  166   -10763.311        0.0000000
  2  45  585   -27.673599        0.0000000
  2  330  537   -11392.245        0.0000000
  2  732  87   -11271.955        0.0000000
  2  673  512   -10436.884        0.0000000
  2  603  403   -5193.0400        0.0000000
  2  550  452   -4152.0786        0.0000000
  2  380  509   -4503.1758        0.0000000
  2  745  146   -12925.114        0.0000000
  2  675  423   -6114.5381        0.0000000
  2  711  297   -8215.2324        0.0000000
  2  752  143   -2359.4683        0.0000000
  2  593  902   -5123.5610        0.0000000
  2  806  438   -5007.5957        0.0000000
  2  705  499   -7129.8076        0.0000000
  2  404  321   -2921.8296        0.0000000
  2  258  689   -20563.721        0.0000000
  2  812  546   -3692.7358        0.0000000
  2  777  218   -7973.9917        0.0000000
  2  733  618   -21743.508        0.0000000
  2  771  265   -26997.090        0.0000000
  2  479  477   -11889.598        0.0000000
  2  825  546   -7940.3335        0.0000000
  2  39  592   -4842.8721        0.0000000
  2  809  346   -7695.8838        0.0000000
  2  738  599   -823.61768        0.0000000
  2  878  546   -9839.4863        0.0000000
  2  569  517   -17614.438        0.0000000
  2  760  438   -9151.3076        0.0000000
  2  685  258   -14489.444        0.0000000
  2  786  546   -13735.308        0.0000000
  2  482  428   -24222.414        0.0000000
  2  544  554   -9685.7441        0.0000000
  2  118  693   -17.570499        0.0000000
  2  416  518   -16.948200        0.0000000
  2  362  605   -17.570499        0.0000000
  2  474  610   -3.2945001        0.0000000
  2  784  34   -12134.635        0.0000000
  2  618  257   -47188.480        0.0000000
  2  376  472   -757.72827        0.0000000
  2  689  526   -30.748400        0.0000000
  2  625  927   -99.895699        0.0000000
  2  836  512   -2.3793001        0.0000000
  2  121  694   -316.26920        0.0000000
  2  758  61  -0.40000000E-03    0.0000000
  2  706  198   -13845.929        0.0000000
  2  645  704   -527.11530        0.0000000
  2  537  405   -11939.162        0.0000000
  2  732  101   -4357.0474        0.0000000
  2  616  566   -8210.5537        0.0000000
  2  886  400   -16611.820        0.0000000
  2  316  419   -801.65460        0.0000000
  2  303  647   -16604.133        0.0000000
  2  798  87   -6668.5034        0.0000000
  2  758  159   -7914.6367        0.0000000
  2  777  432   -2055.7498        0.0000000
  2  597  551   -11167.524        0.0000000
  2  670  330   -4562.3613        0.0000000
  2  339  571   -44656.188        0.0000000
  2  531  650   -1496.7513        0.0000000
  2  397  440   -1423.2114        0.0000000
  2  735  559   -14897.598        0.0000000
  2  580  876   -9387.9238        0.0000000
  2  672  351   -6137.8169        0.0000000
  2  725  121   -6846.0264        0.0000000
  2  632  511   -16509.654        0.0000000
  2  638  212   -8202.5635        0.0000000
  2  746  979   -18023.830        0.0000000
  2  758  87   -10673.500        0.0000000
  2  789  325   -8793.2295        0.0000000
  2  384  327   -5578.6372        0.0000000
  2  661  538   -6266.8159        0.0000000
  2  745  127   -5881.7285        0.0000000
  2  758  74   -21523.877        0.0000000
  2  691  225   -11963.871        0.0000000
  2  590  372   -2492.8164        0.0000000
  2  701  245   -3417.2976        0.0000000
  2  251  695   -4651.7930        0.0000000
  2  821  373   -17851.639        0.0000000
  2  785  127   -1453.4327        0.0000000
  2  731  290   -9399.0605        0.0000000
  2  750  245   -8578.0361        0.0000000
  2  755  371   -22171.789        0.0000000
  2  803  218   -18461.391        0.0000000
  2  683  447   -8363.8057        0.0000000
  2  685  479   -5165.7305        0.0000000
  2  672  499   -8222.9990        0.0000000
  2  778  121   -10057.580        0.0000000
  2  217  517   -4035.7268        0.0000000
  2  514  849   -13560.042        0.0000000
  2  794  399   -3272.5078        0.0000000
  2  516  537   -30878.930        0.0000000
  2  665  567   -11919.396        0.0000000
  2  682  545   -7994.5825        0.0000000
  2  797  513   -16911.617        0.0000000
  2  731  277   -8613.6689        0.0000000
  2  588  429   -5761.4648        0.0000000
  2  639  420   -15883.742        0.0000000
  2  672  114   -3142.0137        0.0000000
  2  669  454   -7247.8359        0.0000000
  2  200  556   -199.33380        0.0000000
  2  807  452   -11742.153        0.0000000
  2  774  456   -4322.3457        0.0000000
  2  266  549   -4091.6443        0.0000000
  2  260  570   -10176.255        0.0000000
  2  775  379   -12945.187        0.0000000
  2  675  479   -15877.886        0.0000000
  2  695  545   -1244.5779        0.0000000
  2  758  47   -6537.8774        0.0000000
  2  838  74   -15499.563        0.0000000
  2  686  192   -27246.373        0.0000000
  2  156  548   -43.926300        0.0000000
  2  751  659   -52.711498        0.0000000
  2  158  535   -11113.349        0.0000000
  2  829  191   -10549.335        0.0000000
  2  580  902   -6603.7485        0.0000000
  2  612  252   -53077.059        0.0000000
  2  784  21   -16060.546        0.0000000
  2  673  205   -586.95392        0.0000000
  2  841  474   -8433.8457        0.0000000
  2  891  21   -4234.1416        0.0000000
  2  776  502   -19976.354        0.0000000
  2  593  941   -396.21500        0.0000000
  2  530  602   -228.41660        0.0000000
  2  508  610   -5135.3774        0.0000000
  2  469  317   -111317.38        0.0000000
  3  469  317   -2882.6145        0.0000000
  2  464  317   -10801.613        0.0000000
  3  464  317   -298.38708        0.0000000
END PERIOD
