# CHD6 input file, prepared by MF5to6 on 12/20/2025 at 16:46:52.

BEGIN Options
  PRINT_INPUT
  PRINT_FLOWS
END Options

BEGIN Dimensions
  MAXBOUND  5694
END Dimensions

BEGIN PERIOD 1
  1  1  446    1139.6400
  1  2  445    1138.5400
  1  3  445    1137.7700
  1  4  445    1136.7100
  1  5  444    1135.8100
  1  6  443    1134.9200
  1  7  442    1133.8500
  1  7  664    1173.0000
  1  7  665    1172.5000
  1  7  666    1172.2000
  1  7  667    1172.0000
  1  7  668    1171.7000
  1  8  442    1132.8900
  1  8  660    1176.6000
  1  8  661    1176.5000
  1  8  662    1175.8000
  1  8  663    1174.8000
  1  8  669    1170.5000
  1  8  670    1170.5000
  1  8  671    1169.9000
  1  8  672    1169.3000
  1  8  673    1168.9000
  1  9  442    1132.3700
  1  9  658    1177.9000
  1  9  659    1177.7000
  1  9  660    1178.1000
  1  9  673    1168.5000
  1  9  674    1168.1000
  1  10  442    1131.9800
  1  10  443    1131.6500
  1  10  675    1168.0000
  1  10  676    1168.0000
  1  11  443    1131.1500
  1  11  676    1167.3000
  1  11  677    1167.2000
  1  12  444    1129.9300
  1  12  677    1167.0000
  1  12  678    1166.4000
  1  12  693    1160.8000
  1  12  694    1160.5000
  1  12  695    1160.3000
  1  12  696    1160.2000
  1  12  697    1160.2000
  1  13  444    1129.7400
  1  13  445    1129.6200
  1  13  678    1166.6000
  1  13  679    1165.9000
  1  13  680    1165.6000
  1  13  692    1160.9000
  1  13  697    1160.0000
  1  13  698    1159.8000
  1  13  699    1159.8000
  1  13  700    1159.8000
  1  13  701    1159.8000
  1  14  445    1129.6200
  1  14  446    1129.5780
  1  14  680    1165.6000
  1  14  681    1165.2000
  1  14  691    1161.4000
  1  14  692    1161.1000
  1  14  701    1159.8000
  1  14  702    1159.7000
  1  14  703    1159.5000
  1  14  704    1159.5000
  1  14  705    1159.5000
  1  15  446    1129.5240
  1  15  681    1165.0000
  1  15  682    1164.7000
  1  15  683    1164.6000
  1  15  686    1163.4000
  1  15  687    1162.9000
  1  15  688    1162.5000
  1  15  689    1162.2000
  1  15  690    1161.8000
  1  15  691    1161.5000
  1  15  705    1159.6000
  1  15  706    1159.5000
  1  15  707    1159.5000
  1  15  715    1156.6000
  1  15  716    1156.6000
  1  15  717    1156.6000
  1  15  718    1156.6000
  1  15  719    1156.6000
  1  15  720    1156.5000
  1  15  721    1156.5000
  1  15  722    1156.5000
  1  15  723    1156.5000
  1  16  446    1129.4660
  1  16  683    1164.3000
  1  16  684    1164.0000
  1  16  685    1163.6000
  1  16  686    1163.3000
  1  16  707    1159.5000
  1  16  708    1159.4000
  1  16  709    1159.4000
  1  16  710    1159.1000
  1  16  711    1158.9000
  1  16  712    1158.3000
  1  16  713    1157.6000
  1  16  714    1157.1000
  1  16  715    1156.7000
  1  16  724    1156.4000
  1  17  446    1129.4200
  1  17  724    1155.7000
  1  18  446    1129.3980
  1  18  447    1129.3870
  1  18  448    1129.3790
  1  18  725    1155.1000
  1  19  448    1129.3700
  1  19  726    1155.3000
  1  20  442    1129.3640
  1  20  443    1129.3650
  1  20  444    1129.3660
  1  20  445    1129.3670
  1  20  446    1129.3680
  1  20  447    1129.3690
  1  20  448    1129.3690
  1  20  727    1155.3000
  1  20  728    1155.2000
  1  21  441    1129.3630
  1  21  729    1155.2000
  1  22  440    1129.3620
  1  22  441    1129.3620
  1  22  730    1155.2000
  1  22  731    1155.2000
  1  23  440    1129.3610
  1  23  732    1155.2000
  1  23  733    1155.2000
  1  24  440    1129.3600
  1  24  734    1155.0000
  1  25  440    1129.3400
  1  25  734    1155.0000
  1  26  440    1129.3190
  1  26  734    1155.0000
  1  27  439    1129.2950
  1  27  440    1129.3070
  1  27  734    1155.0000
  1  28  438    1129.2650
  1  28  439    1129.2770
  1  28  735    1155.0000
  1  29  438    1129.2500
  1  29  736    1152.4000
  1  30  438    1129.2290
  1  30  736    1152.0000
  1  30  737    1150.6000
  1  31  438    1129.2070
  1  31  738    1150.1000
  1  32  438    1129.1920
  1  32  439    1129.1800
  1  32  440    1129.1600
  1  32  441    1129.1390
  1  32  739    1149.8000
  1  33  440    1129.1020
  1  33  441    1129.1170
  1  33  739    1149.8000
  1  33  740    1149.8000
  1  33  741    1149.8000
  1  33  742    1149.8000
  1  33  743    1149.7000
  1  33  744    1149.7000
  1  33  745    1149.7000
  1  33  746    1149.7000
  1  34  438    1129.0600
  1  34  439    1129.0730
  1  34  440    1129.0910
  1  34  747    1149.7000
  1  34  748    1149.7000
  1  34  749    1149.7000
  1  34  750    1149.7000
  1  34  751    1149.7000
  1  34  752    1149.7000
  1  34  753    1149.7000
  1  34  754    1149.7000
  1  34  755    1149.7000
  1  35  438    1129.0460
  1  35  756    1149.7000
  1  35  757    1149.7000
  1  35  758    1149.7000
  1  36  437    1129.0210
  1  36  438    1129.0310
  1  36  758    1149.7000
  1  36  759    1149.6000
  1  36  760    1149.6000
  1  36  761    1149.4000
  1  37  437    1129.0020
  1  37  762    1149.4000
  1  37  763    1149.4000
  1  38  437    1128.9880
  1  38  438    1128.9760
  1  38  763    1149.4000
  1  39  438    1128.9630
  1  39  439    1128.9470
  1  39  440    1128.9270
  1  39  441    1128.9080
  1  39  764    1149.2000
  1  39  765    1149.1000
  1  40  441    1128.8960
  1  40  442    1128.8860
  1  40  766    1149.1000
  1  40  767    1148.9000
  1  41  442    1128.8670
  1  41  767    1148.8000
  1  42  442    1128.8470
  1  42  768    1148.6000
  1  43  442    1128.8300
  1  43  443    1128.8130
  1  43  444    1128.7980
  1  43  769    1148.5000
  1  44  444    1128.7870
  1  44  445    1128.7690
  1  44  769    1148.6000
  1  44  770    1148.4000
  1  45  445    1128.7560
  1  45  446    1128.7450
  1  45  770    1148.4000
  1  45  771    1148.3000
  1  46  445    1128.7150
  1  46  446    1128.7270
  1  46  772    1148.2000
  1  47  444    1128.6860
  1  47  445    1128.7020
  1  47  773    1148.1000
  1  48  444    1128.6700
  1  48  774    1148.1000
  1  49  444    1128.6490
  1  49  445    1128.6380
  1  49  774    1148.1000
  1  50  445    1128.6260
  1  50  446    1128.6040
  1  50  447    1128.5920
  1  50  774    1148.0000
  1  51  447    1128.5800
  1  51  774    1148.0000
  1  52  447    1128.5380
  1  52  774    1148.0000
  1  53  443    1128.4490
  1  53  444    1128.4680
  1  53  445    1128.4880
  1  53  446    1128.5080
  1  53  447    1128.5270
  1  53  774    1148.0000
  1  54  442    1128.4250
  1  54  443    1128.4350
  1  54  773    1148.0000
  1  55  442    1128.4090
  1  55  443    1128.3980
  1  55  772    1148.0000
  1  56  443    1128.3860
  1  56  444    1128.3650
  1  56  772    1147.6000
  1  57  444    1128.3540
  1  57  445    1128.3410
  1  57  446    1128.3250
  1  57  772    1147.6000
  1  58  446    1128.3080
  1  58  772    1147.2000
  1  59  446    1128.2960
  1  59  447    1128.2860
  1  59  772    1147.0000
  1  60  447    1128.2660
  1  60  771    1146.9000
  1  61  447    1128.2460
  1  61  771    1146.5000
  1  62  447    1128.2270
  1  62  770    1146.3000
  1  63  447    1128.2060
  1  63  769    1146.1000
  1  64  443    1128.1290
  1  64  444    1128.1410
  1  64  445    1128.1610
  1  64  446    1128.1820
  1  64  447    1128.1940
  1  64  769    1146.1000
  1  65  443    1128.1140
  1  65  769    1145.5000
  1  66  443    1128.0920
  1  66  770    1145.5000
  1  67  442    1128.0680
  1  67  443    1128.0790
  1  67  771    1145.4000
  1  68  442    1128.0510
  1  68  445    1127.9690
  1  68  771    1145.4000
  1  69  442    1128.0310
  1  69  443    1128.0110
  1  69  444    1127.9890
  1  69  445    1127.9750
  1  69  446    1127.9460
  1  69  771    1145.4000
  1  70  446    1127.9330
  1  70  771    1145.4000
  1  71  446    1127.9120
  1  71  770    1145.6000
  1  71  771    1145.3000
  1  72  445    1127.8870
  1  72  446    1127.8980
  1  72  770    1145.5000
  1  73  443    1127.8370
  1  73  444    1127.8520
  1  73  445    1127.8720
  1  73  770    1145.5000
  1  74  442    1127.8080
  1  74  443    1127.8270
  1  74  770    1145.3000
  1  75  441    1127.7890
  1  75  442    1127.7940
  1  75  770    1145.2000
  1  76  442    1127.7620
  1  76  770    1145.2000
  1  77  442    1127.7450
  1  77  443    1127.7330
  1  77  770    1145.0000
  1  78  443    1127.7160
  1  78  770    1144.9000
  1  79  443    1127.7010
  1  79  444    1127.6910
  1  79  771    1144.3000
  1  80  444    1127.6740
  1  80  771    1144.3000
  1  81  441    1127.6090
  1  81  442    1127.6210
  1  81  443    1127.6420
  1  81  444    1127.6590
  1  81  771    1144.2000
  1  82  440    1127.5800
  1  82  441    1127.5990
  1  82  771    1144.2000
  1  83  440    1127.5630
  1  83  771    1144.2000
  1  84  440    1127.5400
  1  84  771    1144.2000
  1  85  440    1126.4500
  1  85  771    1144.2000
  1  86  440    1125.9900
  1  86  771    1144.2000
  1  86  772    1144.4000
  1  87  440    1125.9900
  1  87  772    1144.4000
  1  88  440    1125.9900
  1  88  772    1144.4000
  1  89  440    1125.9900
  1  89  772    1144.4000
  1  90  440    1125.9900
  1  90  772    1144.4000
  1  91  440    1125.9900
  1  91  772    1144.4000
  1  92  440    1125.9900
  1  92  772    1144.3000
  1  93  439    1125.9900
  1  93  440    1125.9900
  1  93  772    1144.2000
  1  94  438    1125.9900
  1  94  439    1125.9900
  1  94  772    1144.2000
  1  95  437    1125.9900
  1  95  438    1125.9900
  1  95  771    1144.2000
  1  96  436    1125.9900
  1  96  437    1125.9900
  1  96  771    1144.2000
  1  97  435    1125.9900
  1  97  436    1125.9900
  1  97  770    1144.2000
  1  97  771    1144.2000
  1  98  434    1125.9900
  1  98  435    1125.9900
  1  98  769    1144.2000
  1  98  770    1144.2000
  1  99  434    1125.9900
  1  99  768    1144.2000
  1  99  769    1144.2000
  1  100  434    1125.9900
  1  100  768    1144.2000
  1  101  434    1125.9900
  1  101  768    1144.2000
  1  102  434    1125.9900
  1  102  768    1144.2000
  1  103  434    1125.9900
  1  103  768    1144.2000
  1  104  434    1125.9900
  1  104  768    1144.2000
  1  105  434    1125.9900
  1  105  768    1144.2000
  1  106  434    1125.9900
  1  106  767    1144.2000
  1  106  768    1144.2000
  1  107  434    1125.9900
  1  107  767    1144.2000
  1  108  434    1125.9900
  1  108  767    1144.2000
  1  109  434    1125.9900
  1  109  435    1125.9900
  1  109  766    1144.2000
  1  109  767    1144.2000
  1  110  435    1125.9900
  1  110  764    1144.2000
  1  110  765    1144.2000
  1  110  766    1144.2000
  1  111  435    1125.9900
  1  111  436    1125.9900
  1  111  764    1144.2000
  1  112  436    1125.9900
  1  112  764    1144.2000
  1  113  436    1125.9900
  1  113  765    1144.2000
  1  114  435    1125.9900
  1  114  436    1125.9900
  1  114  765    1144.2000
  1  115  435    1125.9900
  1  115  765    1144.2000
  1  116  434    1125.9900
  1  116  435    1125.9900
  1  116  764    1144.2000
  1  117  433    1125.9900
  1  117  434    1125.9900
  1  117  765    1144.2000
  1  118  433    1125.9900
  1  118  766    1144.2000
  1  119  433    1125.9900
  1  119  766    1144.2000
  1  120  433    1125.9900
  1  120  434    1125.9900
  1  120  766    1144.2000
  1  121  434    1125.9900
  1  121  766    1144.2000
  1  122  434    1125.9900
  1  122  435    1125.9900
  1  122  767    1144.2000
  1  123  435    1125.9900
  1  123  767    1144.2000
  1  124  435    1125.9900
  1  124  768    1143.3000
  1  125  435    1122.1500
  1  125  768    1142.4000
  1  125  769    1142.4000
  1  126  435    1121.6100
  1  126  769    1141.8000
  1  127  435    1120.6700
  1  127  436    1120.6630
  1  127  768    1141.6000
  1  127  769    1141.6000
  1  128  436    1120.6580
  1  128  437    1120.6500
  1  128  438    1120.5280
  1  128  768    1141.1000
  1  129  438    1120.4200
  1  129  439    1120.3040
  1  129  768    1140.9000
  1  130  439    1120.2300
  1  130  440    1120.1360
  1  130  768    1140.6000
  1  131  440    1120.0400
  1  131  441    1120.0000
  1  131  768    1140.3000
  1  132  440    1119.8060
  1  132  441    1119.8800
  1  132  768    1139.9000
  1  133  440    1119.6900
  1  133  769    1139.5000
  1  134  440    1119.6000
  1  134  770    1139.5000
  1  135  440    1119.4600
  1  135  771    1139.5000
  1  136  440    1119.3800
  1  136  772    1139.5000
  1  137  440    1119.2600
  1  137  772    1139.5000
  1  138  440    1119.1500
  1  138  772    1139.5000
  1  139  440    1118.9900
  1  139  773    1139.5000
  1  140  440    1118.9000
  1  140  774    1139.1000
  1  141  440    1118.8300
  1  141  774    1138.4000
  1  142  440    1118.7590
  1  142  441    1118.6900
  1  142  774    1137.4000
  1  143  441    1118.6100
  1  143  774    1137.3000
  1  144  441    1118.4300
  1  144  442    1118.3900
  1  144  774    1137.3000
  1  145  442    1118.2700
  1  145  443    1118.2100
  1  145  774    1136.6000
  1  146  443    1118.0600
  1  146  774    1136.6000
  1  146  775    1135.7000
  1  147  442    1117.8160
  1  147  443    1117.9300
  1  147  775    1135.0000
  1  148  440    1117.5020
  1  148  441    1117.5800
  1  148  442    1117.7400
  1  148  776    1135.0000
  1  149  440    1117.4200
  1  149  775    1135.0000
  1  149  776    1135.0000
  1  150  439    1117.2110
  1  150  440    1117.2900
  1  150  774    1135.0000
  1  151  438    1116.9730
  1  151  439    1117.1300
  1  151  774    1135.0000
  1  152  437    1115.9900
  1  152  438    1115.9900
  1  152  774    1135.0000
  1  153  437    1115.9900
  1  153  773    1135.0000
  1  153  774    1135.0000
  1  154  437    1115.9900
  1  154  770    1135.0000
  1  154  771    1135.0000
  1  154  772    1135.0000
  1  155  437    1115.9900
  1  155  770    1135.0000
  1  156  435    1115.9900
  1  156  436    1115.9900
  1  156  437    1115.9900
  1  156  756    1135.0000
  1  156  757    1135.0000
  1  156  758    1135.0000
  1  156  766    1135.0000
  1  156  767    1135.0000
  1  156  769    1135.0000
  1  156  770    1135.0000
  1  157  434    1115.9900
  1  157  435    1115.9900
  1  157  755    1135.0000
  1  157  756    1135.0000
  1  157  758    1135.0000
  1  157  759    1135.0000
  1  157  760    1135.0000
  1  157  761    1135.0000
  1  157  762    1135.0000
  1  157  763    1135.0000
  1  157  764    1135.0000
  1  157  765    1135.0000
  1  157  767    1135.0000
  1  157  768    1135.0000
  1  158  433    1115.9900
  1  158  434    1115.9900
  1  158  751    1135.0000
  1  158  752    1135.0000
  1  158  753    1135.0000
  1  158  754    1135.0000
  1  159  430    1115.9900
  1  159  431    1115.9900
  1  159  432    1115.9900
  1  159  433    1115.9900
  1  159  749    1135.0000
  1  159  750    1135.0000
  1  159  751    1135.0000
  1  160  429    1115.9900
  1  160  430    1115.9900
  1  160  746    1135.0000
  1  160  747    1135.0000
  1  160  748    1135.0000
  1  160  749    1135.0000
  1  161  428    1115.9900
  1  161  429    1115.9900
  1  161  746    1135.0000
  1  162  426    1115.9900
  1  162  427    1115.9900
  1  162  428    1115.9900
  1  162  746    1134.7000
  1  163  425    1115.9900
  1  163  426    1115.9900
  1  163  745    1134.7000
  1  163  746    1134.7000
  1  164  425    1115.9900
  1  164  744    1134.1000
  1  164  745    1134.7000
  1  165  424    1115.9900
  1  165  425    1115.9900
  1  165  744    1133.9000
  1  166  423    1115.9900
  1  166  424    1115.9900
  1  166  742    1133.8000
  1  166  743    1133.8000
  1  167  423    1115.9900
  1  167  742    1133.8000
  1  168  423    1115.9900
  1  168  741    1133.8000
  1  169  422    1115.9900
  1  169  423    1115.9900
  1  169  741    1133.8000
  1  170  421    1115.9900
  1  170  422    1115.9900
  1  170  741    1133.5000
  1  171  419    1115.9900
  1  171  420    1115.9900
  1  171  741    1133.4000
  1  172  419    1115.9900
  1  172  741    1133.4000
  1  173  419    1115.9900
  1  173  741    1133.2000
  1  174  418    1115.9900
  1  174  419    1115.9900
  1  174  740    1133.0000
  1  175  417    1115.9900
  1  175  418    1115.9900
  1  175  740    1132.6000
  1  176  416    1115.9900
  1  176  417    1115.9900
  1  176  740    1133.0000
  1  177  415    1115.9900
  1  177  416    1115.9900
  1  177  739    1133.0000
  1  178  414    1115.9900
  1  178  415    1115.9900
  1  178  739    1132.4000
  1  179  409    1115.9900
  1  179  410    1115.9900
  1  179  411    1115.9900
  1  179  412    1115.9900
  1  179  413    1115.9900
  1  179  739    1132.3000
  1  180  739    1132.1000
  1  181  738    1132.1000
  1  182  738    1131.7000
  1  183  738    1131.6000
  1  184  738    1131.4000
  1  185  737    1131.4000
  1  186  737    1131.4000
  1  187  737    1131.4000
  1  188  737    1131.4000
  1  189  736    1131.3000
  1  189  737    1131.4000
  1  190  736    1131.1000
  1  191  405    1092.0940
  1  191  735    1131.0000
  1  191  736    1131.1000
  1  192  405    1092.0790
  1  192  735    1130.4000
  1  193  405    1092.0640
  1  193  734    1130.0000
  1  193  735    1130.1000
  1  194  404    1092.0420
  1  194  405    1092.0490
  1  194  734    1130.0000
  1  195  404    1092.0330
  1  195  733    1130.0000
  1  195  734    1130.0000
  1  196  401    1091.9770
  1  196  402    1091.9930
  1  196  403    1092.0080
  1  196  404    1092.0200
  1  196  732    1130.0000
  1  197  401    1091.9600
  1  197  731    1130.0000
  1  198  401    1091.9510
  1  198  402    1091.9420
  1  198  730    1130.0000
  1  199  402    1091.9300
  1  199  403    1091.9210
  1  199  730    1130.0000
  1  200  403    1091.9060
  1  200  729    1129.9000
  1  200  730    1130.0000
  1  201  403    1091.8960
  1  201  404    1091.8880
  1  201  729    1129.9000
  1  202  401    1091.8460
  1  202  402    1091.8560
  1  202  403    1091.8720
  1  202  728    1129.9000
  1  202  729    1129.9000
  1  203  401    1091.8370
  1  203  402    1091.8270
  1  203  728    1129.8000
  1  204  402    1091.8190
  1  204  403    1091.8060
  1  204  404    1091.7940
  1  204  728    1129.9000
  1  205  400    1091.7270
  1  205  401    1091.7370
  1  205  402    1091.7450
  1  205  403    1091.7720
  1  205  404    1091.7830
  1  205  728    1129.9000
  1  206  400    1091.7170
  1  206  402    1091.7530
  1  206  403    1091.7640
  1  206  728    1129.9000
  1  207  400    1091.7010
  1  207  728    1129.9000
  1  208  400    1091.6860
  1  208  728    1129.9000
  1  208  729    1129.9000
  1  209  399    1091.6690
  1  209  400    1091.6780
  1  209  729    1129.9000
  1  210  398    1091.6460
  1  210  399    1091.6560
  1  210  729    1129.6000
  1  211  398    1091.6330
  1  211  730    1129.3000
  1  211  731    1129.3000
  1  212  398    1091.6210
  1  212  399    1091.6120
  1  212  732    1129.3000
  1  212  733    1129.3000
  1  212  734    1129.3000
  1  213  399    1091.6000
  1  213  734    1129.3000
  1  214  398    1091.5870
  1  214  399    1091.5900
  1  214  735    1129.3000
  1  215  398    1091.5830
  1  215  735    1129.3000
  1  215  736    1129.3000
  1  215  737    1129.3000
  1  215  738    1129.3000
  1  215  739    1129.3000
  1  216  397    1091.5770
  1  216  398    1091.5800
  1  216  740    1128.9000
  1  217  397    1091.5720
  1  217  740    1128.8000
  1  217  742    1128.8000
  1  217  743    1128.2000
  1  217  744    1128.0000
  1  217  745    1127.8000
  1  217  746    1127.8000
  1  218  396    1091.5660
  1  218  397    1091.5680
  1  218  741    1128.8000
  1  218  746    1127.5000
  1  219  394    1091.5510
  1  219  395    1091.5560
  1  219  396    1091.5610
  1  219  747    1127.3000
  1  220  394    1091.5460
  1  220  747    1127.3000
  1  220  748    1127.0000
  1  220  749    1126.8000
  1  221  394    1091.5410
  1  221  749    1126.8000
  1  221  750    1126.4000
  1  221  751    1126.4000
  1  221  752    1126.4000
  1  222  394    1091.5370
  1  222  752    1126.0000
  1  222  753    1125.8000
  1  223  394    1091.5320
  1  223  754    1125.6000
  1  223  755    1125.4000
  1  223  756    1125.2000
  1  223  757    1124.9000
  1  223  758    1124.8000
  1  224  394    1091.5270
  1  224  758    1124.5000
  1  225  394    1091.5230
  1  225  395    1091.5190
  1  225  396    1091.5150
  1  225  758    1124.5000
  1  225  759    1124.4000
  1  225  760    1124.2000
  1  225  761    1124.0000
  1  225  762    1124.0000
  1  225  763    1123.6000
  1  226  396    1091.5110
  1  226  763    1123.5000
  1  226  764    1123.3000
  1  226  765    1123.2000
  1  226  766    1122.9000
  1  226  767    1122.9000
  1  226  768    1122.9000
  1  226  769    1122.6000
  1  226  770    1122.3000
  1  226  771    1122.1000
  1  226  772    1121.9000
  1  226  773    1121.9000
  1  227  396    1091.5060
  1  227  774    1121.8000
  1  227  775    1121.6000
  1  227  776    1121.5000
  1  227  777    1121.4000
  1  227  778    1121.3000
  1  227  779    1121.2000
  1  227  780    1121.0000
  1  227  781    1120.7000
  1  227  782    1119.9000
  1  227  783    1119.6000
  1  227  784    1119.5000
  1  227  785    1119.5000
  1  228  388    1091.4520
  1  228  389    1091.4560
  1  228  390    1091.4600
  1  228  396    1091.5010
  1  228  786    1119.2000
  1  228  787    1119.2000
  1  228  788    1119.2000
  1  229  388    1091.4490
  1  229  390    1091.4650
  1  229  391    1091.4710
  1  229  392    1091.4750
  1  229  393    1091.4800
  1  229  396    1091.4960
  1  229  788    1118.5000
  1  230  387    1091.4410
  1  230  388    1091.4440
  1  230  391    1091.4690
  1  230  393    1091.4830
  1  230  394    1091.4860
  1  230  395    1091.4910
  1  230  396    1091.4940
  1  230  789    1118.0000
  1  231  387    1091.4380
  1  231  789    1116.0000
  1  232  387    1091.4330
  1  232  789    1115.9000
  1  233  387    1091.4290
  1  233  790    1112.7000
  1  234  387    1091.4240
  1  234  791    1112.6000
  1  235  387    1091.4190
  1  235  792    1111.1000
  1  236  387    1091.4140
  1  236  792    1109.5000
  1  237  386    1091.4050
  1  237  387    1091.4100
  1  237  793    1109.5000
  1  238  386    1091.4000
  1  238  793    1108.9000
  1  239  386    1091.3950
  1  239  387    1091.3900
  1  239  388    1091.3850
  1  239  389    1091.3820
  1  239  793    1108.8000
  1  240  389    1091.3780
  1  240  793    1108.6000
  1  241  389    1091.3740
  1  241  390    1091.3720
  1  241  793    1108.4000
  1  242  387    1090.9300
  1  242  388    1090.9900
  1  242  389    1091.3400
  1  242  792    1108.4000
  1  242  793    1108.4000
  1  243  387    1090.7600
  1  243  388    1090.7000
  1  243  792    1107.8000
  1  244  388    1090.3000
  1  244  389    1090.2300
  1  244  792    1107.8000
  1  245  389    1089.9400
  1  245  390    1089.8300
  1  245  391    1089.5370
  1  245  792    1107.8000
  1  246  391    1089.2900
  1  246  392    1089.1600
  1  246  792    1107.4000
  1  247  392    1088.7400
  1  247  393    1088.6400
  1  247  792    1106.8000
  1  248  393    1088.3000
  1  248  792    1106.8000
  1  249  389    1086.2900
  1  249  390    1086.2950
  1  249  392    1087.6490
  1  249  393    1087.8600
  1  249  792    1106.4000
  1  250  388    1085.7200
  1  250  389    1086.0100
  1  250  390    1086.3000
  1  250  391    1087.1600
  1  250  392    1087.4200
  1  250  791    1106.4000
  1  251  387    1085.2520
  1  251  388    1085.4500
  1  251  390    1086.5000
  1  251  391    1086.9600
  1  251  791    1106.1000
  1  252  387    1085.1000
  1  252  388    1085.0200
  1  252  790    1105.9000
  1  253  382    1080.7200
  1  253  386    1083.8900
  1  253  387    1084.3000
  1  253  388    1084.7500
  1  253  790    1105.4000
  1  254  377    1078.4280
  1  254  378    1078.4290
  1  254  379    1078.4300
  1  254  380    1078.8600
  1  254  381    1079.9100
  1  254  383    1081.5000
  1  254  384    1081.7200
  1  254  385    1083.2700
  1  254  387    1084.1000
  1  254  790    1105.2000
  1  255  377    1078.4270
  1  255  384    1082.0100
  1  255  385    1083.0700
  1  255  790    1105.2000
  1  256  377    1078.4260
  1  256  384    1082.2300
  1  256  385    1082.6700
  1  256  790    1104.7000
  1  257  377    1078.4240
  1  257  790    1104.3000
  1  258  377    1078.4240
  1  258  378    1078.4230
  1  258  790    1104.1000
  1  259  378    1078.4220
  1  259  790    1103.8000
  1  260  378    1078.4210
  1  260  379    1078.4200
  1  260  790    1103.6000
  1  261  379    1078.4190
  1  261  790    1103.6000
  1  262  377    1078.4160
  1  262  378    1078.4180
  1  262  379    1078.4180
  1  262  789    1103.6000
  1  263  376    1078.4150
  1  263  789    1103.1000
  1  264  375    1078.4130
  1  264  789    1103.0000
  1  265  375    1078.4120
  1  265  788    1102.8000
  1  266  374    1078.4100
  1  266  375    1078.4110
  1  266  788    1102.0000
  1  267  373    1078.4080
  1  267  374    1078.4090
  1  267  788    1101.8000
  1  268  373    1078.4080
  1  268  787    1101.8000
  1  269  373    1078.4060
  1  269  787    1101.4000
  1  270  373    1078.4050
  1  270  787    1101.4000
  1  271  372    1078.4030
  1  271  373    1078.4040
  1  271  787    1101.4000
  1  272  372    1078.4020
  1  272  788    1101.3000
  1  273  371    1078.4010
  1  273  372    1078.4010
  1  273  788    1099.9000
  1  274  372    1078.4000
  1  274  788    1099.7000
  1  275  370    1078.3970
  1  275  371    1078.3980
  1  275  372    1078.3990
  1  275  789    1099.5000
  1  276  370    1078.3960
  1  276  790    1099.5000
  1  277  370    1078.3950
  1  277  790    1099.5000
  1  278  370    1078.3940
  1  278  790    1098.1000
  1  279  367    1078.3890
  1  279  368    1078.3900
  1  279  369    1078.3910
  1  279  370    1078.3920
  1  279  790    1097.9000
  1  280  366    1078.3880
  1  280  367    1078.3880
  1  280  790    1097.9000
  1  281  366    1078.3870
  1  281  367    1078.3870
  1  281  790    1097.5000
  1  282  367    1078.3860
  1  282  789    1096.7000
  1  283  367    1078.3850
  1  283  788    1096.6000
  1  284  367    1078.3830
  1  284  789    1095.7000
  1  285  367    1078.3820
  1  285  790    1095.7000
  1  286  367    1078.3810
  1  286  790    1095.1000
  1  287  367    1078.3800
  1  287  791    1095.1000
  1  288  367    1078.3790
  1  288  792    1095.1000
  1  289  367    1078.3770
  1  289  792    1093.7000
  1  290  367    1078.3760
  1  290  370    1078.3710
  1  290  371    1078.3700
  1  290  792    1093.7000
  1  291  367    1078.3750
  1  291  368    1078.3750
  1  291  369    1078.3730
  1  291  370    1078.3720
  1  291  371    1078.3690
  1  291  793    1093.2000
  1  292  368    1078.3740
  1  292  371    1078.3680
  1  292  794    1093.2000
  1  293  371    1078.3670
  1  293  795    1093.2000
  1  294  371    1078.3660
  1  294  796    1093.0000
  1  295  371    1078.3640
  1  295  796    1090.6000
  1  295  797    1090.0000
  1  296  371    1078.3630
  1  296  372    1078.3630
  1  296  798    1090.0000
  1  296  799    1089.3000
  1  296  800    1088.3000
  1  296  801    1088.3000
  1  296  813    1084.0000
  1  296  814    1083.9000
  1  296  815    1083.3000
  1  296  816    1083.3000
  1  297  372    1078.3620
  1  297  373    1078.3610
  1  297  801    1088.3000
  1  297  802    1088.1000
  1  297  803    1088.1000
  1  297  813    1084.0000
  1  297  817    1082.9000
  1  298  370    1077.7900
  1  298  373    1078.3600
  1  298  374    1078.3300
  1  298  375    1078.3050
  1  298  803    1088.1000
  1  298  804    1088.0000
  1  298  811    1084.8000
  1  298  812    1084.6000
  1  298  817    1082.2000
  1  299  369    1077.7770
  1  299  370    1077.7900
  1  299  371    1077.9100
  1  299  375    1078.2800
  1  299  805    1087.4000
  1  299  806    1087.2000
  1  299  809    1086.4000
  1  299  810    1085.7000
  1  299  817    1082.0000
  1  300  369    1077.7610
  1  300  371    1077.9800
  1  300  372    1078.0000
  1  300  375    1078.2000
  1  300  807    1087.0000
  1  300  808    1086.4000
  1  300  809    1086.0000
  1  300  817    1082.0000
  1  300  818    1082.0000
  1  300  819    1082.0000
  1  300  820    1082.0000
  1  301  369    1077.7400
  1  301  372    1078.0470
  1  301  373    1078.1000
  1  301  374    1078.1400
  1  301  375    1078.2000
  1  301  820    1080.8000
  1  302  369    1077.6100
  1  302  821    1080.2000
  1  302  827    1079.1000
  1  302  828    1078.9000
  1  302  829    1078.7000
  1  303  368    1077.5090
  1  303  369    1077.5500
  1  303  821    1080.2000
  1  303  822    1079.8000
  1  303  823    1079.8000
  1  303  824    1079.8000
  1  303  825    1079.6000
  1  303  826    1079.4000
  1  303  829    1078.6000
  1  303  830    1078.4000
  1  303  831    1078.2000
  1  304  367    1077.3200
  1  304  368    1077.4800
  1  304  831    1078.1000
  1  305  365    1077.1350
  1  305  366    1077.2600
  1  305  367    1077.3200
  1  305  832    1078.1000
  1  306  833    1077.7000
  1  306  834    1077.6000
  1  307  363    1076.9800
  1  307  364    1076.9060
  1  307  835    1077.5000
  1  308  364    1076.8600
  1  308  365    1076.7600
  1  308  836    1077.3000
  1  309  365    1076.7600
  1  309  837    1077.3000
  1  310  364    1076.4670
  1  310  365    1076.5400
  1  310  366    1076.0760
  1  310  367    1076.0560
  1  310  368    1076.0200
  1  310  369    1075.9800
  1  310  370    1075.8190
  1  310  837    1077.3000
  1  311  363    1076.4030
  1  311  364    1076.4200
  1  311  365    1076.1290
  1  311  366    1076.0970
  1  311  370    1075.7100
  1  311  371    1075.6750
  1  311  372    1075.6420
  1  311  837    1077.2000
  1  312  363    1076.3700
  1  312  364    1076.3100
  1  312  365    1076.1500
  1  312  368    1075.3400
  1  312  369    1075.4300
  1  312  370    1075.4800
  1  312  372    1075.6100
  1  312  837    1077.1000
  1  313  367    1075.2600
  1  313  368    1075.3000
  1  313  370    1075.4840
  1  313  371    1075.4920
  1  313  372    1075.5000
  1  313  838    1076.6000
  1  314  367    1075.2100