# File generated by Flopy version 3.9.5 on 01/06/2026 at 10:34:57.
BEGIN options
END options

BEGIN dimensions
  NPER  1
END dimensions

BEGIN perioddata
       1.00000000  1       1.00000000
END perioddata

