# File generated by Flopy version 3.9.5 on 01/06/2026 at 10:34:57.
BEGIN options
END options

BEGIN dimensions
  MAXBOUND  587
END dimensions

BEGIN period  1
    OPEN/CLOSE  'lpr_ss_gwf.wel_stress_period_data_1.txt'
END period  1

