# IMS6 input file, prepared by MF5to6 on 12/20/2025 at 16:46:53.

BEGIN Options
  PRINT_OPTION  SUMMARY
  COMPLEXITY  complex
END Options

BEGIN Nonlinear
  OUTER_DVCLOSE   0.1000000    
  OUTER_MAXIMUM  150
END Nonlinear

BEGIN LINEAR
  INNER_MAXIMUM  8
  INNER_DVCLOSE   5.0000000E-06
  LINEAR_ACCELERATION  BICGSTAB
 RELAXATION_FACTOR 0.9
END LINEAR
