# File generated by Flopy version 3.9.5 on 01/06/2026 at 10:34:57.
BEGIN options
END options

BEGIN griddata
  strt  LAYERED
    OPEN/CLOSE  'lpr_ss_gwf.ic_strt_layer1.txt'  FACTOR  1.0
    OPEN/CLOSE  'lpr_ss_gwf.ic_strt_layer2.txt'  FACTOR  1.0
    OPEN/CLOSE  'lpr_ss_gwf.ic_strt_layer3.txt'  FACTOR  1.0
END griddata

