# File generated by Flopy version 3.9.5 on 01/06/2026 at 10:34:57.
BEGIN options
END options

BEGIN dimensions
  NLAY  3
  NROW  900
  NCOL  1070
END dimensions

BEGIN griddata
  delr
    OPEN/CLOSE  'lpr_ss_gwf.dis_delr.txt'  FACTOR  1.0
  delc
    OPEN/CLOSE  'lpr_ss_gwf.dis_delc.txt'  FACTOR  1.0
  top
    OPEN/CLOSE  'lpr_ss_gwf.dis_top.txt'  FACTOR  1.0
  botm  LAYERED
    OPEN/CLOSE  'lpr_ss_gwf.dis_botm_layer1.txt'  FACTOR  1.0
    OPEN/CLOSE  'lpr_ss_gwf.dis_botm_layer2.txt'  FACTOR  1.0
    OPEN/CLOSE  'lpr_ss_gwf.dis_botm_layer3.txt'  FACTOR  1.0
  idomain  LAYERED
    OPEN/CLOSE  'lpr_ss_gwf.dis_idomain_layer1.txt'  FACTOR  1
    OPEN/CLOSE  'lpr_ss_gwf.dis_idomain_layer2.txt'  FACTOR  1
    OPEN/CLOSE  'lpr_ss_gwf.dis_idomain_layer3.txt'  FACTOR  1
END griddata

