# File generated by Flopy version 3.9.5 on 01/06/2026 at 10:34:57.
BEGIN options
  BUDGET  FILEOUT  lpr_ss_gwf.cbb
  HEAD  FILEOUT  lpr_ss_gwf.hds
END options

BEGIN period  1
  SAVE  head  all
  SAVE  budget  all
  PRINT  budget  all
END period  1

