# File generated by Flopy version 3.9.5 on 01/06/2026 at 10:34:57.
BEGIN options
  READASARRAYS
END options

BEGIN period  1
  recharge
    OPEN/CLOSE  'lpr_ss_gwf.rcha_recharge_1.txt'  FACTOR  1.0
END period  1

