# OC6 input file, prepared by MF5to6 on 12/20/2025 at 16:46:52.

BEGIN Options
  BUDGET FILEOUT  lpr_ss_SS11Final_baserun_updated_wells.cbb
  HEAD FILEOUT  lpr_ss_SS11Final_baserun_updated_wells.hds
  HEAD PRINT_FORMAT  COLUMNS 10  WIDTH 11  DIGITS 4  GENERAL             
END Options

BEGIN PERIOD 1
  SAVE BUDGET ALL
  PRINT BUDGET ALL
  SAVE HEAD ALL
END PERIOD
