# File generated by Flopy version 3.9.5 on 01/06/2026 at 10:34:57.
BEGIN options
  LIST  lpr_ss_gwf.lst
  SAVE_FLOWS
  NEWTON  UNDER_RELAXATION
END options

BEGIN packages
	SFR6 lpr_ss.sfr sfr_0
  DIS6  lpr_ss_gwf.dis  dis
  IC6  lpr_ss_gwf.ic  ic
  NPF6  lpr_ss_gwf.npf  npf
  OC6  lpr_ss_gwf.oc  oc
  RCH6  lpr_ss_gwf.rcha  rcha_0
  CHD6  lpr_ss_gwf.chd  chd_0
  DRN6  lpr_ss_gwf.drn  drn_0
  WEL6  lpr_ss_gwf.wel  wel_0
END packages

