# MODFLOW-6 SFR input; created by SFRmaker v. 0.12.1.post54+g1f885a0

BEGIN Options
	OBS6 FILEIN sfr_obs.obs
  unit_conversion  128390.4
  auxiliary line_id
END Options

BEGIN Dimensions
  NREACHES 3347
END Dimensions

BEGIN Packagedata
#rno k i j rlen rwid rgrd rtp rbth rhk man ncon ustrf ndv line_id
1 1 570 458 86.92152 0.6774301837802643 0.000389 1087.1 0.9 2.493963 0.03700000047683716 1 1.0 0 1
2 1 570 457 11.18776 0.7416495318157463 0.003443 1087.066 0.9 2.493963 0.03700000047683716 2 1.0 0 1
3 1 569 457 141.9454 0.8418858531771769 0.000429 1087.028 0.9 2.493963 0.03700000047683716 2 1.0 0 1
4 1 569 456 100.3755 1.0005017393035125 0.000503 1086.967 0.9 2.493963 0.03700000047683716 2 1.0 0 1
5 1 569 455 100.2733 1.1318403436403375 0.000493 1086.916 0.9 2.493963 0.03700000047683716 2 1.0 0 1
6 1 569 454 96.17096 1.2604267912964267 0.000262 1086.867 0.9 2.493963 0.03700000047683716 2 1.0 0 1
7 1 568 454 4.102314 1.3260626138925184 0.006401 1086.842 0.9 2.493963 0.03700000047683716 2 1.0 0 1
8 1 568 453 100.2733 1.3943837139282185 0.000503 1086.815 0.9 2.493963 0.03700000047683716 2 1.0 0 1
9 1 568 452 100.2733 1.5256554390239159 0.000503 1086.765 0.9 2.493963 0.03700000047683716 2 1.0 0 1
10 1 568 451 100.2733 1.6569271641196133 0.000503 1086.714 0.9 2.493963 0.03700000047683716 2 1.0 0 1
11 1 568 450 100.2733 1.7881988892153107 0.000503 1086.664 0.9 2.493963 0.03700000047683716 2 1.0 0 1
12 1 568 449 100.3586 1.9195263869637047 0.000503 1086.613 0.9 2.493963 0.03700000047683716 2 1.0 0 1
13 1 568 448 100.3776 2.0509221223129623 0.000503 1086.563 0.9 2.493963 0.03700000047683716 2 1.0 0 1
14 1 568 447 100.3776 2.182330322610387 0.000503 1086.512 0.9 2.493963 0.03700000047683716 2 1.0 0 1
15 1 568 446 100.3776 2.313738522907812 0.000503 1086.462 0.9 2.493963 0.03700000047683716 2 1.0 0 1
16 1 568 445 100.3776 2.445146723205237 0.000503 1086.411 0.9 2.493963 0.03700000047683716 2 1.0 0 1
17 1 568 444 100.3084 2.5765096981137985 0.000503 1086.361 0.9 2.493963 0.03700000047683716 2 1.0 0 1
18 1 568 443 100.2959 2.707819137668053 0.000404 1086.31 0.9 2.493963 0.03700000047683716 2 1.0 0 1
19 1 568 442 1.0 2.7741243519517744 0.000667 1086.27 0.9 0.0 0.03700000047683716 2 1.0 0 1
20 1 554 453 9.632829 0.21603536498400358 0.000308 1091.0 0.9 2.493963 0.03700000047683716 1 1.0 0 2
21 1 555 453 100.0047 0.3402019583956808 1e-04 1090.997 0.9 2.493963 0.03700000047683716 2 1.0 0 2
22 1 556 453 100.0047 0.5667164244330772 1e-04 1090.992 0.9 2.493963 0.03700000047683716 2 1.0 0 2
23 1 557 453 100.0047 0.7932308559087334 1e-04 1090.986 0.9 2.493963 0.03700000047683716 2 1.0 0 2
24 1 558 453 100.0047 1.0197453219461299 1e-04 1090.981 0.9 2.493963 0.03700000047683716 2 1.0 0 2
25 1 559 453 100.0047 1.2462597879835264 1e-04 1090.975 0.9 2.493963 0.03700000047683716 2 1.0 0 2
26 1 560 453 100.0047 1.4727743231444035 0.00377 1090.97 0.9 2.493963 0.03700000047683716 2 1.0 0 2
27 1 561 453 100.0047 1.6992886509348388 0.002332 1090.593 0.9 2.493963 0.03700000047683716 2 1.0 0 2
28 1 562 453 1.0 1.8136784721821244 0.009833 1090.36 0.9 0.0 0.03700000047683716 2 1.0 0 2
29 1 548 441 44.77835 0.4797390111039187 0.003994 1089.0 0.9 2.493963 0.03700000047683716 1 1.0 0 3
30 1 549 441 100.0216 0.5938823806923974 0.00247 1088.821 0.9 2.493963 0.03700000047683716 2 1.0 0 3
31 1 550 441 100.0216 0.7515730790343504 0.00247 1088.574 0.9 2.493963 0.03700000047683716 2 1.0 0 3
32 1 551 441 100.0216 0.9092637773763036 0.00247 1088.327 0.9 2.493963 0.03700000047683716 2 1.0 0 3
33 1 552 441 100.0216 1.0669544757182567 0.000971 1088.08 0.9 2.493963 0.03700000047683716 2 1.0 0 3
34 1 553 441 100.0216 1.2246451259472233 0.000971 1087.983 0.9 2.493963 0.03700000047683716 2 1.0 0 3
35 1 554 441 100.0216 1.3823358242891766 0.000971 1087.886 0.9 2.493963 0.03700000047683716 2 1.0 0 3
36 1 555 441 100.0216 1.5400265226311296 0.000971 1087.789 0.9 2.493963 0.03700000047683716 2 1.0 0 3
37 1 556 441 100.0216 1.6977172209730829 0.000899 1087.691 0.9 2.493963 0.03700000047683716 2 1.0 0 3
38 1 557 441 85.12561 1.8436656562680673 0.000571 1087.602 0.9 2.493963 0.03700000047683716 2 1.0 0 3
39 1 557 442 14.89601 1.922511005439044 0.003746 1087.553 0.9 2.493963 0.03700000047683716 2 1.0 0 3
40 1 558 442 100.0216 2.013098617656989 0.000971 1087.497 0.9 2.493963 0.03700000047683716 2 1.0 0 3
41 1 559 442 100.0216 2.170789412224915 0.004321 1087.4 0.9 2.493963 0.03700000047683716 2 1.0 0 3
42 1 560 442 100.0216 2.3284801105668684 0.003077 1086.968 0.9 2.493963 0.03700000047683716 2 1.0 0 3
43 1 561 442 1.0 2.408113646683609 0.007251 1086.66 0.9 0.0 0.03700000047683716 2 1.0 0 3
44 1 587 442 45.58999 0.48970980922653073 0.004979 1087.0 0.9 2.493963 0.03700000047683716 1 1.0 0 4
45 1 586 442 100.0583 0.6214380335788301 0.003117 1086.773 0.9 2.493963 0.03700000047683716 2 1.0 0 4
46 1 585 442 100.0583 0.8024288362256361 0.003117 1086.461 0.9 2.493963 0.03700000047683716 2 1.0 0 4
47 1 584 442 100.0583 0.9834196388724421 0.003117 1086.149 0.9 2.493963 0.03700000047683716 2 1.0 0 4
48 1 583 442 100.0583 1.1644104415192482 0.003117 1085.837 0.9 2.493963 0.03700000047683716 2 1.0 0 4
49 1 582 442 100.0583 1.3454012993678874 0.003117 1085.526 0.9 2.493963 0.03700000047683716 2 1.0 0 4
50 1 581 442 100.0583 1.5263920468128602 0.003117 1085.214 0.9 2.493963 0.03700000047683716 2 1.0 0 4
51 1 580 442 100.0583 1.7073828494596661 0.003117 1084.902 0.9 2.493963 0.03700000047683716 2 1.0 0 4
52 1 579 442 100.0583 1.8883736521064722 1e-04 1084.59 0.9 2.493963 0.03700000047683716 2 1.0 0 4
53 1 578 442 1.0 1.979773535467435 1e-04 1084.59 0.9 0.0 0.03700000047683716 2 1.0 0 4
54 1 588 426 67.68914 0.5963643568796789 0.004185 1089.0 0.9 2.493963 0.03700000047683716 1 1.0 0 5
55 1 587 426 100.0041 0.7182632803847308 0.003379 1088.717 0.9 2.493963 0.03700000047683716 2 1.0 0 5
56 1 586 426 100.0041 0.8636524502743889 0.003379 1088.379 0.9 2.493963 0.03700000047683716 2 1.0 0 5
57 1 585 426 100.0041 1.009041620164047 0.003379 1088.041 0.9 2.493963 0.03700000047683716 2 1.0 0 5
58 1 584 426 100.0041 1.1544307900537052 0.003379 1087.703 0.9 2.493963 0.03700000047683716 2 1.0 0 5
59 1 583 426 100.0041 1.2998199155759242 0.003379 1087.365 0.9 2.493963 0.03700000047683716 2 1.0 0 5
60 1 582 426 100.0041 1.4452090854655824 0.003379 1087.027 0.9 2.493963 0.03700000047683716 2 1.0 0 5
61 1 581 426 100.0041 1.5905982553552405 0.003379 1086.689 0.9 2.493963 0.03700000047683716 2 1.0 0 5
62 1 580 426 100.0041 1.7359874252448986 0.003379 1086.352 0.9 2.493963 0.03700000047683716 2 1.0 0 5
63 1 579 426 100.0041 1.881376595134557 0.003379 1086.014 0.9 2.493963 0.03700000047683716 2 1.0 0 5
64 1 578 426 100.0041 2.0267658537590933 0.003379 1085.676 0.9 2.493963 0.03700000047683716 2 1.0 0 5
65 1 577 426 100.0041 2.1721551123836296 0.003379 1085.338 0.9 2.493963 0.03700000047683716 2 1.0 0 5
66 1 576 426 100.0041 2.3175443710081662 0.003379 1085.0 0.9 2.493963 0.03700000047683716 2 1.0 0 5
67 1 825 464 10.30382 0.21610286392775416 0.040683 1076.266 0.9 2.493963 0.03700000047683716 1 1.0 0 6
68 1 826 464 103.5674 0.25927893974660143 0.002111 1075.847 0.9 2.493963 0.03700000047683716 2 1.0 0 6
69 1 827 464 37.19384 0.31265079738336027 0.006101 1075.628 0.9 2.493963 0.03700000047683716 2 1.0 0 6
70 1 827 463 77.50544 0.35614084750398417 0.003662 1075.401 0.9 2.493963 0.03700000047683716 2 1.0 0 6
71 1 828 463 87.30125 0.41862989777891424 0.008485 1075.117 0.9 2.493963 0.03700000047683716 2 1.0 0 6
72 1 828 462 103.2833 0.4908930448359862 0.006574 1074.377 0.9 2.493963 0.03700000047683716 2 1.0 0 6
73 1 828 461 49.52866 0.5488341182822021 0.006767 1073.698 0.9 2.493963 0.03700000047683716 2 1.0 0 6
74 1 829 461 57.80143 0.5895300187782644 0.009139 1073.363 0.9 2.493963 0.03700000047683716 2 1.0 0 6
75 1 829 460 111.3511 0.6536668807075975 0.008707 1072.834 0.9 2.493963 0.03700000047683716 2 1.0 0 6
76 1 829 459 59.02654 0.7182682809757482 0.009659 1071.865 0.9 2.493963 0.03700000047683716 2 1.0 0 6
77 1 830 459 55.63753 0.7617449316195537 0.015616 1071.295 0.9 2.493963 0.03700000047683716 2 1.0 0 6
78 1 830 458 119.1062 0.8280018036920676 0.004293 1070.426 0.9 2.493963 0.03700000047683716 2 1.0 0 6
79 1 830 457 10.24661 0.8770479619180247 0.102204 1069.915 0.9 2.493963 0.03700000047683716 2 1.0 0 6
80 1 831 457 122.9938 0.9275681551637921 0.008155 1068.867 0.9 2.493963 0.03700000047683716 2 1.0 0 6
81 1 831 456 26.13515 0.9841127439301258 0.011814 1067.864 0.9 2.493963 0.03700000047683716 2 1.0 0 6
82 1 832 456 116.3874 1.0381524405170672 0.002612 1067.556 0.9 2.493963 0.03700000047683716 2 1.0 0 6
83 1 832 455 23.95797 1.091366646019187 0.003021 1067.251 0.9 2.493963 0.03700000047683716 2 1.0 0 6
84 1 833 455 112.6509 1.1431640709153976 0.005023 1067.179 0.9 2.493963 0.03700000047683716 2 1.0 0 6
85 1 833 454 52.66779 1.2058473326056296 0.004282 1066.613 0.9 2.493963 0.03700000047683716 2 1.0 0 6
86 1 834 454 61.2579 1.2490440984953046 0.005661 1066.388 0.9 2.493963 0.03700000047683716 2 1.0 0 6
87 1 834 453 113.9257 1.3154676424711795 0.001292 1066.041 0.9 2.493963 0.03700000047683716 2 1.0 0 6
88 1 834 452 29.47641 1.3698409142893129 0.014619 1065.894 0.9 2.493963 0.03700000047683716 2 1.0 0 6
89 1 835 452 94.09672 1.4166955753532775 0.002296 1065.463 0.9 2.493963 0.03700000047683716 2 1.0 0 6
90 1 835 451 72.96712 1.4800405258883995 0.008005 1065.247 0.9 2.493963 0.03700000047683716 2 1.0 0 6
91 1 836 451 51.86625 1.5273730321982122 0.020511 1064.663 0.9 2.493963 0.03700000047683716 2 1.0 0 6
92 1 836 450 115.1976 1.5907179827333342 0.004934 1063.599 0.9 2.493963 0.03700000047683716 2 1.0 0 6
93 1 837 450 9.635787 1.6380504890431469 0.063535 1063.031 0.9 2.493963 0.03700000047683716 2 1.0 0 6
94 1 837 449 124.8334 1.6890365397472114 1e-04 1062.418 0.9 2.493963 0.03700000047683716 2 1.0 0 6
95 1 837 448 32.59468 1.7487279458880813 1e-04 1062.415 0.9 2.493963 0.03700000047683716 2 1.0 0 6
96 1 838 448 92.23869 1.796060452197894 1e-04 1062.412 0.9 2.493963 0.03700000047683716 2 1.0 0 6
97 1 838 447 74.82515 1.859405402733016 1e-04 1062.409 0.9 2.493963 0.03700000047683716 2 1.0 0 6
98 1 839 447 44.67727 1.9047166477210367 1e-04 1062.406 0.9 2.493963 0.03700000047683716 2 1.0 0 6
99 1 839 446 103.7146 1.9609818608670742 1e-04 1062.403 0.9 2.493963 0.03700000047683716 2 1.0 0 6
100 1 839 445 103.7146 2.039631744737537 1e-04 1062.398 0.9 2.493963 0.03700000047683716 2 1.0 0 6
101 1 839 444 1.0 2.079336037664145 1e-04 1062.396 0.9 0.0 0.03700000047683716 2 1.0 0 6
102 1 839 444 101.2056 2.1180888983093067 1e-04 1062.393 0.9 2.493963 0.03700000047683716 2 1.0 0 6
103 1 839 443 100.9077 2.194723352754624 1e-04 1062.389 0.9 2.493963 0.03700000047683716 2 1.0 0 6
104 1 839 442 100.9077 2.271244872058536 1e-04 1062.385 0.9 2.493963 0.03700000047683716 2 1.0 0 6
105 1 839 441 100.1656 2.3474849792068144 1e-04 1062.381 0.9 2.493963 0.03700000047683716 2 1.0 0 6
106 1 839 440 100.0251 2.423390539141127 1e-04 1062.376 0.9 2.493963 0.03700000047683716 2 1.0 0 6
107 1 839 439 100.0251 2.4992427788775298 0.00022 1062.372 0.9 2.493963 0.03700000047683716 2 1.0 0 6
108 1 839 438 100.0251 2.5750950186139328 1e-04 1062.35 0.9 2.493963 0.03700000047683716 2 1.0 0 6
109 1 839 437 100.0251 2.6509472583503357 1e-04 1062.341 0.9 2.493963 0.03700000047683716 2 1.0 0 6
110 1 839 436 100.0251 2.7267994980867387 0.000937 1062.333 0.9 2.493963 0.03700000047683716 2 1.0 0 6
111 1 839 435 100.0251 2.8026517378231417 0.001026 1062.239 0.9 2.493963 0.03700000047683716 2 1.0 0 6
112 1 839 434 100.0251 2.8785039775595447 0.000779 1062.136 0.9 2.493963 0.03700000047683716 2 1.0 0 6
113 1 839 433 100.0251 2.9543562172959477 0.001358 1062.058 0.9 2.493963 0.03700000047683716 2 1.0 0 6
114 1 839 432 100.0251 3.0302084570323506 0.001114 1061.922 0.9 2.493963 0.03700000047683716 2 1.0 0 6
115 1 839 431 100.0251 3.1060606967687536 0.001324 1061.811 0.9 2.493963 0.03700000047683716 2 1.0 0 6
116 1 839 430 100.0251 3.1819129365051566 0.00165 1061.678 0.9 2.493963 0.03700000047683716 2 1.0 0 6
117 1 839 429 100.0251 3.2577651762415596 0.001792 1061.513 0.9 2.493963 0.03700000047683716 2 1.0 0 6
118 1 839 428 100.0251 3.3336170456988103 0.001306 1061.334 0.9 2.493963 0.03700000047683716 2 1.0 0 6
119 1 839 427 100.0251 3.409469100295637 0.003831 1061.204 0.9 2.493963 0.03700000047683716 2 1.0 0 6
120 1 839 426 100.0251 3.485321154892464 0.008016 1060.82 0.9 2.493963 0.03700000047683716 2 1.0 0 6
121 1 839 425 100.0251 3.561173209489291 0.009756 1060.019 0.9 2.493963 0.03700000047683716 2 1.0 0 6
122 1 839 424 100.0251 3.637025264086118 0.007563 1059.043 0.9 2.493963 0.03700000047683716 2 1.0 0 6
123 1 839 423 100.0251 3.7128773186829447 0.008079 1058.286 0.9 2.493963 0.03700000047683716 2 1.0 0 6
124 1 839 422 100.0251 3.788729373279772 0.000216 1057.478 0.9 2.493963 0.03700000047683716 2 1.0 0 6
125 1 839 421 100.0251 3.864581427876599 0.000216 1057.457 0.9 2.493963 0.03700000047683716 2 1.0 0 6
126 1 839 420 100.0251 3.9404334824734257 0.000216 1057.435 0.9 2.493963 0.03700000047683716 2 1.0 0 6
127 1 839 419 100.0251 4.016285537070252 0.000216 1057.414 0.9 2.493963 0.03700000047683716 2 1.0 0 6
128 1 839 418 100.0251 4.092137591667079 0.000216 1057.392 0.9 2.493963 0.03700000047683716 2 1.0 0 6
129 1 839 417 100.0251 4.167989646263906 0.004534 1057.37 0.9 2.493963 0.03700000047683716 2 1.0 0 6
130 1 839 416 100.0251 4.243841700860733 0.033193 1056.917 0.9 2.493963 0.03700000047683716 2 1.0 0 6
131 1 839 415 82.13199 4.31290950083189 0.022198 1053.597 0.9 2.493963 0.03700000047683716 2 1.0 0 6
132 1 840 415 17.89312 4.350835342990727 1e-04 1051.774 0.9 2.493963 0.03700000047683716 2 1.0 0 6
133 1 840 414 100.0251 4.3955458100543865 1e-04 1051.774 0.9 2.493963 0.03700000047683716 2 1.0 0 6
134 1 840 413 100.041 4.4714041593968 1e-04 1051.774 0.9 2.493963 0.03700000047683716 2 1.0 0 6
135 1 840 412 100.0612 4.547275838788691 1e-04 1051.774 0.9 2.493963 0.03700000047683716 2 1.0 0 6
136 1 840 411 100.0612 4.623155294042777 1e-04 1051.774 0.9 2.493963 0.03700000047683716 2 1.0 0 6
137 1 840 410 100.0612 4.699034749296863 1e-04 1051.774 0.9 2.493963 0.03700000047683716 2 1.0 0 6
138 1 840 409 100.0612 4.7749142045509485 1e-04 1051.774 0.9 2.493963 0.03700000047683716 2 1.0 0 6
139 1 840 408 100.0612 4.850793659805035 1e-04 1051.774 0.9 2.493963 0.03700000047683716 2 1.0 0 6
140 1 840 407 100.0612 4.9266731150591205 1e-04 1051.774 0.9 2.493963 0.03700000047683716 2 1.0 0 6
141 1 840 406 100.0612 5.002552570313206 1e-04 1051.774 0.9 2.493963 0.03700000047683716 2 1.0 0 6
142 1 840 405 100.0612 5.078432025567293 1e-04 1051.774 0.9 2.493963 0.03700000047683716 2 1.0 0 6
143 1 840 404 100.0612 5.154311480821378 1e-04 1051.774 0.9 2.493963 0.03700000047683716 2 1.0 0 6
144 1 840 403 101.7925 5.230847441012224 1e-04 1051.774 0.9 2.493963 0.03700000047683716 2 1.0 0 6
145 1 840 402 101.9655 5.30810544554976 1e-04 1051.774 0.9 2.493963 0.03700000047683716 2 1.0 0 6
146 1 840 401 101.9655 5.385428989497226 1e-04 1051.774 0.9 2.493963 0.03700000047683716 2 1.0 0 6
147 1 840 400 21.07878 5.432083051830514 1e-04 1051.774 0.9 2.493963 0.03700000047683716 2 1.0 0 6
148 1 841 400 82.10596 5.471207117325704 1e-04 1051.774 0.9 2.493963 0.03700000047683716 2 1.0 0 6
149 1 841 399 103.3002 5.541507206315213 1e-04 1051.774 0.9 2.493963 0.03700000047683716 2 1.0 0 6
150 1 841 398 103.3002 5.619843093464654 1e-04 1051.774 0.9 2.493963 0.03700000047683716 2 1.0 0 6
151 1 841 397 103.3002 5.698178980614094 1e-04 1051.774 0.9 2.493963 0.03700000047683716 2 1.0 0 6
152 1 841 396 6.799351 5.739924622506499 1e-04 1051.774 0.9 2.493963 0.03700000047683716 2 1.0 0 6
153 1 842 396 96.50086 5.779092751220795 1e-04 1051.774 0.9 2.493963 0.03700000047683716 2 1.0 0 6
154 1 842 395 1.0 5.81606179205048 1e-04 1051.774 0.9 0.0 0.03700000047683716 2 1.0 0 6
155 1 771 298 85.2454 0.6406946907593921 0.000447 1056.215 0.9 2.493963 0.03700000047683716 1 1.0 0 7
156 1 772 298 100.0008 0.6976529414177645 1e-04 1056.177 0.9 2.493963 0.03700000047683716 2 1.0 0 7
157 1 773 298 100.0008 0.7591480854695701 1e-04 1056.177 0.9 2.493963 0.03700000047683716 2 1.0 0 7
158 1 774 298 100.0008 0.8206432201380374 1e-04 1056.176 0.9 2.493963 0.03700000047683716 2 1.0 0 7
159 1 775 298 100.0008 0.8821383548065046 1e-04 1056.176 0.9 2.493963 0.03700000047683716 2 1.0 0 7
160 1 776 298 100.0008 0.943633470708295 1e-04 1056.175 0.9 2.493963 0.03700000047683716 2 1.0 0 7
161 1 777 298 100.0008 1.005128605376762 1e-04 1056.175 0.9 2.493963 0.03700000047683716 2 1.0 0 7
162 1 778 298 100.0008 1.0666237400452294 1e-04 1056.174 0.9 2.493963 0.03700000047683716 2 1.0 0 7
163 1 779 298 100.0008 1.1281188747136965 1e-04 1056.174 0.9 2.493963 0.03700000047683716 2 1.0 0 7
164 1 780 298 100.0009 1.1896140844488712 1e-04 1056.173 0.9 2.493963 0.03700000047683716 2 1.0 0 7
165 1 781 298 100.0011 1.251109294184046 1e-04 1056.172 0.9 2.493963 0.03700000047683716 2 1.0 0 7
166 1 782 298 100.0011 1.3126046915859892 1e-04 1056.172 0.9 2.493963 0.03700000047683716 2 1.0 0 7
167 1 783 298 100.0011 1.3740999388545176 1e-04 1056.171 0.9 2.493963 0.03700000047683716 2 1.0 0 7
168 1 784 298 100.9052 1.4358732332074038 1e-04 1056.17 0.9 2.493963 0.03700000047683716 2 1.0 0 7
169 1 785 298 101.8339 1.4982100533330422 1e-04 1056.17 0.9 2.493963 0.03700000047683716 2 1.0 0 7
170 1 786 298 100.0222 1.5602754322445778 1e-04 1056.169 0.9 2.493963 0.03700000047683716 2 1.0 0 7
171 1 787 298 100.0222 1.6217837411202007 1e-04 1056.168 0.9 2.493963 0.03700000047683716 2 1.0 0 7
172 1 788 298 100.1675 1.6833367146867504 1e-04 1056.168 0.9 2.493963 0.03700000047683716 2 1.0 0 7
173 1 789 298 104.1779 1.7461673986806368 1e-04 1056.167 0.9 2.493963 0.03700000047683716 2 1.0 0 7
174 1 790 298 85.69986 1.8045497046583348 1e-04 1056.166 0.9 2.493963 0.03700000047683716 2 1.0 0 7
175 1 790 299 17.71513 1.8363470611294404 1e-04 1056.166 0.9 2.493963 0.03700000047683716 2 1.0 0 7
176 1 791 299 106.9926 1.8746912854232203 1e-04 1056.165 0.9 2.493963 0.03700000047683716 2 1.0 0 7
177 1 792 299 115.377 1.943063994293989 1e-04 1056.165 0.9 2.493963 0.03700000047683716 2 1.0 0 7
178 1 793 300 124.7835 2.016906814135912 1e-04 1056.164 0.9 2.493963 0.03700000047683716 2 1.0 0 7
179 1 794 300 40.40301 2.067697398790078 1e-04 1056.163 0.9 2.493963 0.03700000047683716 2 1.0 0 7
180 1 794 301 85.23468 2.1063274771057894 1e-04 1056.163 0.9 2.493963 0.03700000047683716 2 1.0 0 7
181 1 795 301 79.95188 2.1571180617599555 1e-04 1056.162 0.9 2.493963 0.03700000047683716 2 1.0 0 7
182 1 795 302 45.68581 2.195748140075667 1e-04 1056.162 0.9 2.493963 0.03700000047683716 2 1.0 0 7
183 1 796 302 119.5007 2.2465387247298327 1e-04 1056.161 0.9 2.493963 0.03700000047683716 2 1.0 0 7
184 1 796 303 6.136938 2.285168953178959 1e-04 1056.161 0.9 2.493963 0.03700000047683716 2 1.0 0 7
185 1 797 303 125.6377 2.325686058386298 1e-04 1056.16 0.9 2.493963 0.03700000047683716 2 1.0 0 7
186 1 798 303 33.41193 2.3745894660154216 1e-04 1056.16 0.9 2.493963 0.03700000047683716 2 1.0 0 7
187 1 798 304 92.42801 2.413281849698308 1e-04 1056.159 0.9 2.493963 0.03700000047683716 2 1.0 0 7
188 1 799 304 69.33295 2.463019098313676 1e-04 1056.159 0.9 2.493963 0.03700000047683716 2 1.0 0 7
189 1 799 305 59.75081 2.5027088182716106 1e-04 1056.158 0.9 2.493963 0.03700000047683716 2 1.0 0 7
190 1 800 305 98.39191 2.551333428149302 1e-04 1056.158 0.9 2.493963 0.03700000047683716 2 1.0 0 7
191 1 800 306 30.69184 2.591023298240652 1e-04 1056.157 0.9 2.493963 0.03700000047683716 2 1.0 0 7
192 1 801 306 127.4509 2.6396480582517583 1e-04 1056.157 0.9 2.493963 0.03700000047683716 2 1.0 0 7
193 1 801 307 1.632876 2.679337778209693 0.000278 1056.156 0.9 2.493963 0.03700000047683716 2 1.0 0 7
194 1 802 307 130.6814 2.7200207808404744 1e-04 1056.156 0.9 2.493963 0.03700000047683716 2 1.0 0 7
195 1 803 307 21.487 2.766808658520523 1e-04 1056.156 0.9 2.493963 0.03700000047683716 2 1.0 0 7
196 1 803 308 117.6522 2.809590075891083 1e-04 1056.155 0.9 2.493963 0.03700000047683716 2 1.0 0 7
197 1 804 308 26.16739 2.853810822310098 1e-04 1056.155 0.9 2.493963 0.03700000047683716 2 1.0 0 7
198 1 804 309 112.9718 2.8965923898140726 1e-04 1056.154 0.9 2.493963 0.03700000047683716 2 1.0 0 7
199 1 805 309 30.84778 2.9408131362330874 1e-04 1056.154 0.9 2.493963 0.03700000047683716 2 1.0 0 7
200 1 805 310 108.2914 2.983594703737062 1e-04 1056.153 0.9 2.493963 0.03700000047683716 2 1.0 0 7
201 1 806 310 35.52817 3.0278153000226617 1e-04 1056.153 0.9 2.493963 0.03700000047683716 2 1.0 0 7
202 1 806 311 101.9836 3.0700966229882565 1e-04 1056.152 0.9 2.493963 0.03700000047683716 2 1.0 0 7
203 1 807 311 47.53927 3.11607092769307 1e-04 1056.152 0.9 2.493963 0.03700000047683716 2 1.0 0 7
204 1 807 312 82.51041 3.1560574614122228 1e-04 1056.151 0.9 2.493963 0.03700000047683716 2 1.0 0 7
205 1 808 312 106.9515 3.2143122290539803 1e-04 1056.151 0.9 2.493963 0.03700000047683716 2 1.0 0 7
206 1 809 312 100.0028 3.277945075883571 1e-04 1056.15 0.9 2.493963 0.03700000047683716 2 1.0 0 7
207 1 810 312 100.0028 3.3394415242194184 1e-04 1056.149 0.9 2.493963 0.03700000047683716 2 1.0 0 7
208 1 811 312 100.0028 3.4009379725552655 1e-04 1056.148 0.9 2.493963 0.03700000047683716 2 1.0 0 7
209 1 812 312 100.0028 3.462434420891113 1e-04 1056.148 0.9 2.493963 0.03700000047683716 2 1.0 0 7
210 1 813 312 100.0028 3.5239308692269606 1e-04 1056.147 0.9 2.493963 0.03700000047683716 2 1.0 0 7
211 1 814 312 100.0028 3.5854273175628077 1e-04 1056.146 0.9 2.493963 0.03700000047683716 2 1.0 0 7
212 1 815 312 100.0028 3.6469237658986553 1e-04 1056.146 0.9 2.493963 0.03700000047683716 2 1.0 0 7
213 1 816 312 100.0028 3.708420214234503 1e-04 1056.146 0.9 2.493963 0.03700000047683716 2 1.0 0 7
214 1 817 312 100.0028 3.76991666257035 1e-04 1056.146 0.9 2.493963 0.03700000047683716 2 1.0 0 7
215 1 818 312 100.0028 3.8314131109061975 1e-04 1056.146 0.9 2.493963 0.03700000047683716 2 1.0 0 7
216 1 819 312 100.0028 3.892909559242045 1e-04 1056.146 0.9 2.493963 0.03700000047683716 2 1.0 0 7
217 1 820 312 100.0028 3.9544060075778926 1e-04 1056.146 0.9 2.493963 0.03700000047683716 2 1.0 0 7
218 1 821 312 100.0028 4.01590245591374 1e-04 1056.144 0.9 2.493963 0.03700000047683716 2 1.0 0 7
219 1 822 312 100.0028 4.077398904249588 1e-04 1056.142 0.9 2.493963 0.03700000047683716 2 1.0 0 7
220 1 823 312 100.0028 4.138895352585434 1e-04 1056.14 0.9 2.493963 0.03700000047683716 2 1.0 0 7
221 1 824 312 100.0028 4.200391800921282 1e-04 1056.139 0.9 2.493963 0.03700000047683716 2 1.0 0 7
222 1 825 312 100.0028 4.2618882492571295 1e-04 1056.137 0.9 2.493963 0.03700000047683716 2 1.0 0 7
223 1 826 312 100.0028 4.323384697592977 1e-04 1056.135 0.9 2.493963 0.03700000047683716 2 1.0 0 7
224 1 827 312 100.0028 4.384881145928825 1e-04 1056.133 0.9 2.493963 0.03700000047683716 2 1.0 0 7
225 1 828 312 100.0028 4.446377594264672 1e-04 1056.132 0.9 2.493963 0.03700000047683716 2 1.0 0 7
226 1 829 312 100.0028 4.507874042600519 1e-04 1056.13 0.9 2.493963 0.03700000047683716 2 1.0 0 7
227 1 830 312 100.0028 4.569370490936366 1e-04 1056.128 0.9 2.493963 0.03700000047683716 2 1.0 0 7
228 1 831 312 100.0028 4.630866939272214 1e-04 1056.126 0.9 2.493963 0.03700000047683716 2 1.0 0 7
229 1 832 312 100.0028 4.6923633876080615 0.000327 1056.125 0.9 2.493963 0.03700000047683716 2 1.0 0 7
230 1 833 312 100.0028 4.753859835943909 0.000327 1056.092 0.9 2.493963 0.03700000047683716 2 1.0 0 7
231 1 834 312 100.0028 4.815356284279757 0.000419 1056.059 0.9 2.493963 0.03700000047683716 2 1.0 0 7
232 1 835 312 100.0028 4.876852732615604 0.000419 1056.017 0.9 2.493963 0.03700000047683716 2 1.0 0 7
233 1 836 312 100.0028 4.938349180951451 0.000289 1055.975 0.9 2.493963 0.03700000047683716 2 1.0 0 7
234 1 837 312 100.0028 4.999845629287298 0.000597 1055.947 0.9 2.493963 0.03700000047683716 2 1.0 0 7
235 1 838 312 100.0028 5.061342077623146 0.000588 1055.887 0.9 2.493963 0.03700000047683716 2 1.0 0 7
236 1 839 312 100.0028 5.1228385259589935 0.001438 1055.828 0.9 2.493963 0.03700000047683716 2 1.0 0 7
237 1 840 312 100.0028 5.184334974294841 0.000532 1055.684 0.9 2.493963 0.03700000047683716 2 1.0 0 7
238 1 841 312 100.0028 5.245831422630689 0.010182 1055.631 0.9 2.493963 0.03700000047683716 2 1.0 0 7
239 1 842 312 100.0028 5.307327870966536 0.022791 1054.613 0.9 2.493963 0.03700000047683716 2 1.0 0 7
240 1 843 312 100.0028 5.368824319302383 0.000237 1052.334 0.9 2.493963 0.03700000047683716 2 1.0 0 7
241 1 844 312 100.0028 5.43032076763823 0.000225 1052.31 0.9 2.493963 0.03700000047683716 2 1.0 0 7
242 1 845 312 89.60336 5.488619674503963 0.000136 1052.287 0.9 2.493963 0.03700000047683716 2 1.0 0 7
243 1 845 313 10.39941 5.519367898671886 1e-04 1052.275 0.9 2.493963 0.03700000047683716 2 1.0 0 7
244 1 846 313 100.0028 5.5533136643099255 1e-04 1052.275 0.9 2.493963 0.03700000047683716 2 1.0 0 7
245 1 847 313 100.0028 5.614810112645773 1e-04 1052.266 0.9 2.493963 0.03700000047683716 2 1.0 0 7
246 1 848 313 100.0028 5.676306560981621 1e-04 1052.258 0.9 2.493963 0.03700000047683716 2 1.0 0 7
247 1 849 313 100.0028 5.737803009317468 1e-04 1052.25 0.9 2.493963 0.03700000047683716 2 1.0 0 7
248 1 850 313 100.0028 5.799299457653315 1e-04 1052.242 0.9 2.493963 0.03700000047683716 2 1.0 0 7
249 1 851 313 100.0028 5.860795905989162 1e-04 1052.234 0.9 2.493963 0.03700000047683716 2 1.0 0 7
250 1 852 313 100.0028 5.92229235432501 1e-04 1052.226 0.9 2.493963 0.03700000047683716 2 1.0 0 7
251 1 853 313 100.0028 5.983788802660857 1e-04 1052.217 0.9 2.493963 0.03700000047683716 2 1.0 0 7
252 1 854 313 100.0028 6.045285250996705 1e-04 1052.209 0.9 2.493963 0.03700000047683716 2 1.0 0 7
253 1 855 313 100.0028 6.1067816993325525 1e-04 1052.201 0.9 2.493963 0.03700000047683716 2 1.0 0 7
254 1 856 313 100.0028 6.168278147668399 1e-04 1052.193 0.9 2.493963 0.03700000047683716 2 1.0 0 7
255 1 857 313 100.0028 6.229774596004247 1e-04 1052.185 0.9 2.493963 0.03700000047683716 2 1.0 0 7
256 1 858 313 100.0028 6.291271044340094 1e-04 1052.176 0.9 2.493963 0.03700000047683716 2 1.0 0 7
257 1 859 313 100.0028 6.352767492675942 1e-04 1052.168 0.9 2.493963 0.03700000047683716 2 1.0 0 7
258 1 860 313 100.0028 6.414263941011789 0.002934 1052.16 0.9 2.493963 0.03700000047683716 2 1.0 0 7
259 1 861 313 100.0028 6.475760389347637 0.000157 1051.867 0.9 2.493963 0.03700000047683716 2 1.0 0 7
260 1 862 313 100.0028 6.5372568376834845 0.000157 1051.851 0.9 2.493963 0.03700000047683716 2 1.0 0 7
261 1 863 313 100.0028 6.598753286019331 0.000157 1051.835 0.9 2.493963 0.03700000047683716 2 1.0 0 7
262 1 864 313 100.0028 6.660249734355179 0.000157 1051.82 0.9 2.493963 0.03700000047683716 2 1.0 0 7
263 1 865 313 100.0028 6.721746182691026 0.000157 1051.804 0.9 2.493963 0.03700000047683716 2 1.0 0 7
264 1 866 313 100.0028 6.783242631026874 0.000146 1051.788 0.9 2.493963 0.03700000047683716 2 1.0 0 7
265 1 867 313 1.0 6.814298028161642 0.000169 1051.774 0.9 0.0 0.03700000047683716 2 1.0 0 7
266 1 867 313 132.0635 13.584562000276277 1e-04 1051.774 0.9 2.493963 0.03700000047683716 3 1.0 0 8
267 1 867 312 100.0412 13.60224605385493 1e-04 1051.773 0.9 2.493963 0.03700000047683716 2 1.0 0 8
268 1 867 311 100.0412 13.61749032830636 1e-04 1051.771 0.9 2.493963 0.03700000047683716 2 1.0 0 8
269 1 867 310 100.0412 13.632734602757791 1e-04 1051.769 0.9 2.493963 0.03700000047683716 2 1.0 0 8
270 1 867 309 100.0412 13.647978872558953 1e-04 1051.768 0.9 2.493963 0.03700000047683716 2 1.0 0 8
271 1 867 308 45.03234 13.659032023659266 1e-04 1051.766 0.9 2.493963 0.03700000047683716 2 1.0 0 8
272 1 868 308 55.00883 13.666654165535249 1e-04 1051.766 0.9 2.493963 0.03700000047683716 2 1.0 0 8
273 1 868 307 100.0412 13.678467416811547 1e-04 1051.764 0.9 2.493963 0.03700000047683716 2 1.0 0 8
274 1 868 306 100.0412 13.693711700563513 1e-04 1051.763 0.9 2.493963 0.03700000047683716 2 1.0 0 8
275 1 868 305 100.0412 13.708955965714408 1e-04 1051.761 0.9 2.493963 0.03700000047683716 2 1.0 0 8
276 1 868 304 100.0412 13.724200249466374 1e-04 1051.759 0.9 2.493963 0.03700000047683716 2 1.0 0 8
277 1 868 303 100.0412 13.73944453321834 1e-04 1051.758 0.9 2.493963 0.03700000047683716 2 1.0 0 8
278 1 868 302 100.0412 13.754688816970305 1e-04 1051.756 0.9 2.493963 0.03700000047683716 2 1.0 0 8
279 1 868 301 100.0412 13.76993310072227 1e-04 1051.755 0.9 2.493963 0.03700000047683716 2 1.0 0 8
280 1 868 300 100.0412 13.785177384474236 1e-04 1051.753 0.9 2.493963 0.03700000047683716 2 1.0 0 8
281 1 868 299 100.0412 13.800421668226202 1e-04 1051.751 0.9 2.493963 0.03700000047683716 2 1.0 0 8
282 1 868 298 100.0412 13.815665951978167 1e-04 1051.75 0.9 2.493963 0.03700000047683716 2 1.0 0 8
283 1 868 297 100.0412 13.830910235730132 1e-04 1051.748 0.9 2.493963 0.03700000047683716 2 1.0 0 8
284 1 868 296 100.0412 13.846154519482097 1e-04 1051.746 0.9 2.493963 0.03700000047683716 2 1.0 0 8
285 1 868 295 100.0412 13.861398803234064 1e-04 1051.745 0.9 2.493963 0.03700000047683716 2 1.0 0 8
286 1 868 294 100.0412 13.876643086986029 1e-04 1051.743 0.9 2.493963 0.03700000047683716 2 1.0 0 8
287 1 868 293 100.0412 13.891887389339065 1e-04 1051.741 0.9 2.493963 0.03700000047683716 2 1.0 0 8
288 1 868 292 100.0412 13.90713167309103 1e-04 1051.74 0.9 2.493963 0.03700000047683716 2 1.0 0 8
289 1 868 291 100.0412 13.922375956842995 1e-04 1051.738 0.9 2.493963 0.03700000047683716 2 1.0 0 8
290 1 868 290 100.0412 13.93762024059496 1e-04 1051.736 0.9 2.493963 0.03700000047683716 2 1.0 0 8
291 1 868 289 100.0412 13.952864524346927 1e-04 1051.735 0.9 2.493963 0.03700000047683716 2 1.0 0 8
292 1 868 288 100.0412 13.968108808098892 1e-04 1051.733 0.9 2.493963 0.03700000047683716 2 1.0 0 8
293 1 868 287 100.0412 13.983353091850857 1e-04 1051.731 0.9 2.493963 0.03700000047683716 2 1.0 0 8
294 1 868 286 100.0412 13.998597375602822 1e-04 1051.73 0.9 2.493963 0.03700000047683716 2 1.0 0 8
295 1 868 285 92.01551 14.01323016777775 1e-04 1051.728 0.9 2.493963 0.03700000047683716 2 1.0 0 8
296 1 869 285 72.14402 14.025737490081601 1e-04 1051.727 0.9 2.493963 0.03700000047683716 2 1.0 0 8