# TDIS6 input file, prepared by MF5to6 on 12/20/2025 at 16:46:51.

BEGIN Options
  TIME_UNITS DAYS
END Options

BEGIN Dimensions
  NPER 1
END Dimensions

BEGIN PERIODDATA
    1.0000000               1    1.2000000      Items: PERLEN NSTP TSMULT
END PERIODDATA
