# File generated by Flopy version 3.9.5 on 01/06/2026 at 10:34:57.
BEGIN options
  CONTINUE
  PROFILE_OPTION  detail
END options

BEGIN timing
  TDIS6  lpr_ss.tdis
END timing

BEGIN models
  gwf6  lpr_ss_gwf.nam  lpr_ss_gwf
END models

BEGIN exchanges
END exchanges

BEGIN solutiongroup  1
  ims6  lpr_ss.ims  lpr_ss_gwf
END solutiongroup  1

