# Simulation name file for MODFLOW 6 prepared by MF5to6

BEGIN Options
END Options

BEGIN TIMING
  TDIS6  lpr_ss.tdis
END TIMING

BEGIN MODELS
  GWF6  lpr_ss.nam  lpr_ss
END MODELS

BEGIN EXCHANGES
END EXCHANGES

BEGIN SOLUTIONGROUP 1
  MXITER  1
  IMS6  lpr_ss.ims  lpr_ss
END SOLUTIONGROUP
