BEGIN OPTIONS
	DIGITS 8
	PRINT_INPUT
END OPTIONS

BEGIN CONTINUOUS FILEOUT hoover.sfr.csv
	hooverflow DOWNSTREAM-FLOW 2786
END CONTINUOUS